<?xml version="1.0" encoding="utf-8"?>
<febio_spec version="3.0">
   <Module type="solid"/>
   <Control>
      <analysis>STATIC</analysis>
      <time_steps>10</time_steps>
      <step_size>0.1</step_size>
      <solver>
         <max_refs>25</max_refs>
         <max_ups>10</max_ups>
         <diverge_reform>1</diverge_reform>
         <reform_each_time_step>1</reform_each_time_step>
         <dtol>0.001</dtol>
         <etol>0.01</etol>
         <rtol>0</rtol>
         <lstol>0.9</lstol>
         <min_residual>1e-20</min_residual>
         <qnmethod>BFGS</qnmethod>
         <symmetric_stiffness>0</symmetric_stiffness>
      </solver>
      <time_stepper>
         <dtmin>0.01</dtmin>
         <dtmax lc="2"/>
         <max_retries>20</max_retries>
         <opt_iter>10</opt_iter>
      </time_stepper>
   </Control>
   <Globals>
      <Constants>
         <T>0</T>
         <R>0</R>
         <Fc>0</Fc>
      </Constants>
   </Globals>
   <Material>
      <material id="1" name="Indenter" type="rigid body">
         <density>1</density>
         <center_of_mass>0,0,0</center_of_mass>
      </material>
      <material id="2" name="Sample" type="solid mixture">
         <solid type="neo-Hookean">
            <density>1</density>
            <E>0.5</E>
            <v>0.2</v>
         </solid>
         <solid type="continuous fiber distribution">
            <density>0</density>
            <fibers type="fiber-exp-pow">
               <alpha>1.2</alpha>
               <beta>5.0</beta>
               <ksi>0.1</ksi>
            </fibers>
            <mat_axis type="angles">
               <theta>0.0</theta>
               <phi>90.0</phi>
            </mat_axis>
            <distribution type="von-Mises-3d">
               <b>0.61</b>
            </distribution>
            <scheme type="fibers-3d-fei">
               <resolution>196</resolution>
            </scheme>
         </solid>
      </material>
   </Material>
   <Mesh>
      <Nodes>
         <node id="1">0,0,-1.35</node>
         <node id="2">0.4,0,-1.35</node>
         <node id="3">0.8,0,-1.35</node>
         <node id="4">1.2,0,-1.35</node>
         <node id="5">1.6,0,-1.35</node>
         <node id="6">2,0,-1.35</node>
         <node id="7">2.4,0,-1.35</node>
         <node id="8">2.7,0,-1.35</node>
         <node id="9">0,0.4,-1.35</node>
         <node id="10">0.4,0.4,-1.35</node>
         <node id="11">0.8,0.4,-1.35</node>
         <node id="12">1.2,0.4,-1.35</node>
         <node id="13">1.6,0.4,-1.35</node>
         <node id="14">2,0.4,-1.35</node>
         <node id="15">2.4,0.4,-1.35</node>
         <node id="16">2.7,0.4,-1.35</node>
         <node id="17">0,0.8,-1.35</node>
         <node id="18">0.4,0.8,-1.35</node>
         <node id="19">0.8,0.8,-1.35</node>
         <node id="20">1.2,0.8,-1.35</node>
<!-- ... 598 like lines cut -->
      </Nodes>
      <Elements mat="2" name="solid_mixture" type="hex8">
         <elem id="1"> 1, 2, 10, 9, 137, 138, 146, 145</elem>
         <elem id="2"> 2, 3, 11, 10, 138, 139, 147, 146</elem>
         <elem id="3"> 3, 4, 12, 11, 139, 140, 148, 147</elem>
         <elem id="4"> 4, 5, 13, 12, 140, 141, 149, 148</elem>
         <elem id="5"> 5, 6, 14, 13, 141, 142, 150, 149</elem>
         <elem id="6"> 6, 7, 15, 14, 142, 143, 151, 150</elem>
         <elem id="7"> 7, 8, 16, 15, 143, 144, 152, 151</elem>
         <elem id="8"> 9, 10, 18, 17, 145, 146, 154, 153</elem>
         <elem id="9"> 10, 11, 19, 18, 146, 147, 155, 154</elem>
         <elem id="10"> 11, 12, 20, 19, 147, 148, 156, 155</elem>
         <elem id="11"> 12, 13, 21, 20, 148, 149, 157, 156</elem>
         <elem id="12"> 13, 14, 22, 21, 149, 150, 158, 157</elem>
         <elem id="13"> 14, 15, 23, 22, 150, 151, 159, 158</elem>
         <elem id="14"> 15, 16, 24, 23, 151, 152, 160, 159</elem>
         <elem id="15"> 17, 18, 26, 25, 153, 154, 162, 161</elem>
         <elem id="16"> 18, 19, 27, 26, 154, 155, 163, 162</elem>
         <elem id="17"> 19, 20, 28, 27, 155, 156, 164, 163</elem>
         <elem id="18"> 20, 21, 29, 28, 156, 157, 165, 164</elem>
         <elem id="19"> 21, 22, 30, 29, 157, 158, 166, 165</elem>
         <elem id="20"> 22, 23, 31, 30, 158, 159, 167, 166</elem>
<!-- ... 316 like lines cut -->
      </Elements>
      <Elements mat="1" name="indenter" type="hex8">
         <elem id="337"> 545, 549, 550, 546, 582, 586, 587, 583</elem>
         <elem id="338"> 546, 550, 551, 547, 583, 587, 588, 584</elem>
         <elem id="339"> 547, 551, 552, 548, 584, 588, 589, 585</elem>
         <elem id="340"> 548, 552, 570, 569, 585, 589, 607, 606</elem>
         <elem id="341"> 549, 553, 554, 550, 586, 590, 591, 587</elem>
         <elem id="342"> 550, 554, 555, 551, 587, 591, 592, 588</elem>
         <elem id="343"> 551, 555, 556, 552, 588, 592, 593, 589</elem>
         <elem id="344"> 552, 556, 571, 570, 589, 593, 608, 607</elem>
         <elem id="345"> 553, 557, 558, 554, 590, 594, 595, 591</elem>
         <elem id="346"> 554, 558, 559, 555, 591, 595, 596, 592</elem>
         <elem id="347"> 555, 559, 560, 556, 592, 596, 597, 593</elem>
         <elem id="348"> 556, 560, 572, 571, 593, 597, 609, 608</elem>
         <elem id="349"> 557, 575, 578, 558, 594, 612, 615, 595</elem>
         <elem id="350"> 558, 578, 581, 559, 595, 615, 618, 596</elem>
         <elem id="351"> 559, 581, 572, 560, 596, 618, 609, 597</elem>
         <elem id="352"> 561, 565, 566, 562, 598, 602, 603, 599</elem>
         <elem id="353"> 562, 566, 567, 563, 599, 603, 604, 600</elem>
         <elem id="354"> 563, 567, 568, 564, 600, 604, 605, 601</elem>
         <elem id="355"> 564, 568, 580, 579, 601, 605, 617, 616</elem>
         <elem id="356"> 565, 569, 570, 566, 602, 606, 607, 603</elem>
<!-- ... 7 like lines cut -->
      </Elements>
      <NodeSet name="FixedBottom_z">
         <node id="1"/>
         <node id="2"/>
         <node id="3"/>
         <node id="4"/>
         <node id="5"/>
         <node id="6"/>
         <node id="7"/>
         <node id="8"/>
         <node id="9"/>
         <node id="10"/>
         <node id="11"/>
         <node id="12"/>
         <node id="13"/>
         <node id="14"/>
         <node id="15"/>
         <node id="16"/>
         <node id="17"/>
         <node id="18"/>
         <node id="19"/>
         <node id="20"/>
<!-- ... 116 like lines cut -->
      </NodeSet>
      <NodeSet name="FixedSide_x">
         <node id="1"/>
         <node id="9"/>
         <node id="17"/>
         <node id="25"/>
         <node id="33"/>
         <node id="41"/>
         <node id="49"/>
         <node id="57"/>
         <node id="65"/>
         <node id="73"/>
         <node id="81"/>
         <node id="89"/>
         <node id="97"/>
         <node id="105"/>
         <node id="113"/>
         <node id="121"/>
         <node id="129"/>
         <node id="137"/>
         <node id="145"/>
         <node id="153"/>
<!-- ... 48 like lines cut -->
      </NodeSet>
      <NodeSet name="FixedSide_y">
         <node id="1"/>
         <node id="2"/>
         <node id="3"/>
         <node id="4"/>
         <node id="5"/>
         <node id="6"/>
         <node id="7"/>
         <node id="8"/>
         <node id="137"/>
         <node id="138"/>
         <node id="139"/>
         <node id="140"/>
         <node id="141"/>
         <node id="142"/>
         <node id="143"/>
         <node id="144"/>
         <node id="273"/>
         <node id="274"/>
         <node id="275"/>
         <node id="276"/>
<!-- ... 12 like lines cut -->
      </NodeSet>
      <Surface name="Slave">
         <quad4 id="1"> 545, 546, 550, 549</quad4>
         <quad4 id="2"> 546, 547, 551, 550</quad4>
         <quad4 id="3"> 547, 548, 552, 551</quad4>
         <quad4 id="4"> 548, 569, 570, 552</quad4>
         <quad4 id="5"> 549, 550, 554, 553</quad4>
         <quad4 id="6"> 550, 551, 555, 554</quad4>
         <quad4 id="7"> 551, 552, 556, 555</quad4>
         <quad4 id="8"> 552, 570, 571, 556</quad4>
         <quad4 id="9"> 553, 554, 558, 557</quad4>
         <quad4 id="10"> 554, 555, 559, 558</quad4>
         <quad4 id="11"> 555, 556, 560, 559</quad4>
         <quad4 id="12"> 556, 571, 572, 560</quad4>
         <quad4 id="13"> 557, 558, 578, 575</quad4>
         <quad4 id="14"> 558, 559, 581, 578</quad4>
         <quad4 id="15"> 559, 560, 572, 581</quad4>
         <quad4 id="16"> 561, 562, 566, 565</quad4>
         <quad4 id="17"> 562, 563, 567, 566</quad4>
         <quad4 id="18"> 563, 564, 568, 567</quad4>
         <quad4 id="19"> 564, 579, 580, 568</quad4>
         <quad4 id="20"> 565, 566, 570, 569</quad4>
<!-- ... 7 like lines cut -->
      </Surface>
      <Surface name="Master">
         <quad4 id="1"> 409, 410, 418, 417</quad4>
         <quad4 id="2"> 410, 411, 419, 418</quad4>
         <quad4 id="3"> 411, 412, 420, 419</quad4>
         <quad4 id="4"> 412, 413, 421, 420</quad4>
         <quad4 id="5"> 413, 414, 422, 421</quad4>
         <quad4 id="6"> 414, 415, 423, 422</quad4>
         <quad4 id="7"> 415, 416, 424, 423</quad4>
         <quad4 id="8"> 417, 418, 426, 425</quad4>
         <quad4 id="9"> 418, 419, 427, 426</quad4>
         <quad4 id="10"> 419, 420, 428, 427</quad4>
         <quad4 id="11"> 420, 421, 429, 428</quad4>
         <quad4 id="12"> 421, 422, 430, 429</quad4>
         <quad4 id="13"> 422, 423, 431, 430</quad4>
         <quad4 id="14"> 423, 424, 432, 431</quad4>
         <quad4 id="15"> 425, 426, 434, 433</quad4>
         <quad4 id="16"> 426, 427, 435, 434</quad4>
         <quad4 id="17"> 427, 428, 436, 435</quad4>
         <quad4 id="18"> 428, 429, 437, 436</quad4>
         <quad4 id="19"> 429, 430, 438, 437</quad4>
         <quad4 id="20"> 430, 431, 439, 438</quad4>
<!-- ... 92 like lines cut -->
      </Surface>
      <SurfacePair name="Sliding_Elastic_Contact">
         <primary>Master</primary>
         <secondary>Slave</secondary>
      </SurfacePair>
   </Mesh>
   <MeshDomains>
      <SolidDomain mat="Indenter" name="indenter"/>
      <SolidDomain mat="Sample" name="solid_mixture"/>
   </MeshDomains>
   <Boundary>
      <bc name="FixedDisplacementX" node_set="FixedSide_x" type="fix">
         <dofs>x</dofs>
      </bc>
      <bc name="FixedDisplacementY" node_set="FixedSide_y" type="fix">
         <dofs>y</dofs>
      </bc>
      <bc name="FixedDisplacementZ" node_set="FixedBottom_z" type="fix">
         <dofs>z</dofs>
      </bc>
   </Boundary>
   <Rigid>
      <rigid_constraint name="RigidFixed01" type="fix">
         <rb>1</rb>
         <dofs>Rx,Ry,Ru,Rv,Rw</dofs>
      </rigid_constraint>
      <rigid_constraint name="RigidDipsZ01" type="prescribe">
         <rb>1</rb>
         <dof>Rz</dof>
         <value lc="1">-0.61</value>
         <relative>0</relative>
      </rigid_constraint>
   </Rigid>
   <Contact>
      <contact lc="1" name="SEContact" surface_pair="Sliding_Elastic_Contact"
               type="sliding-elastic">
         <laugon>1</laugon>
         <tolerance>0.2</tolerance>
         <gaptol>0</gaptol>
         <penalty>100</penalty>
         <auto_penalty>1</auto_penalty>
         <two_pass>0</two_pass>
         <search_tol>0.01</search_tol>
         <symmetric_stiffness>0</symmetric_stiffness>
         <search_radius>0.1</search_radius>
         <seg_up>0</seg_up>
         <tension>0</tension>
         <minaug>0</minaug>
         <maxaug>10</maxaug>
         <fric_coeff>0</fric_coeff>
         <smooth_aug>0</smooth_aug>
         <node_reloc>0</node_reloc>
         <flip_primary>0</flip_primary>
         <flip_secondary>0</flip_secondary>
      </contact>
   </Contact>
   <LoadData>
      <load_controller id="1" type="loadcurve">
         <interpolate>SMOOTH</interpolate>
         <points>
            <point>0,0</point>
            <point>1,1</point>
         </points>
      </load_controller>
      <load_controller id="2" type="loadcurve">
         <interpolate>STEP</interpolate>
         <points>
            <point>0,0.33</point>
            <point>0.33,0.33</point>
            <point>0.67,0.34</point>
            <point>1,0.33</point>
         </points>
      </load_controller>
   </LoadData>
   <Output>
      <plotfile type="febio">
         <var type="displacement"/>
         <var type="stress"/>
      </plotfile>
      <logfile>
         <node_data data="ux;uy;uz" file="disp.txt">545</node_data>
         <rigid_body_data data="Fx;Fy;Fz" file="force.txt">1</rigid_body_data>
      </logfile>
   </Output>
</febio_spec>