<?xml version="1.0" encoding="utf-8"?>
<febio_spec version="3.0">
   <Module type="solid"/>
   <Control>
      <analysis>STATIC</analysis>
      <time_steps>10</time_steps>
      <step_size>0.1</step_size>
      <solver>
         <max_refs>25</max_refs>
         <max_ups>10</max_ups>
         <diverge_reform>1</diverge_reform>
         <reform_each_time_step>1</reform_each_time_step>
         <dtol>0.001</dtol>
         <etol>0.01</etol>
         <rtol>0</rtol>
         <lstol>0.9</lstol>
         <min_residual>1e-20</min_residual>
         <qnmethod>BFGS</qnmethod>
         <symmetric_stiffness>0</symmetric_stiffness>
      </solver>
      <time_stepper>
         <dtmin>0.01</dtmin>
         <dtmax lc="2"/>
         <max_retries>20</max_retries>
         <opt_iter>10</opt_iter>
      </time_stepper>
   </Control>
   <Globals>
      <Constants>
         <T>0</T>
         <R>0</R>
         <Fc>0</Fc>
      </Constants>
   </Globals>
   <Material>
      <material id="1" name="Indenter" type="rigid body">
         <density>1</density>
         <center_of_mass>0,0,0</center_of_mass>
      </material>
      <material id="2" name="Sample" type="solid mixture">
         <solid type="neo-Hookean">
            <density>1</density>
            <E>0.082</E>
            <v>0.29</v>
         </solid>
         <solid type="continuous fiber distribution">
            <density>0</density>
            <fibers type="fiber-exp-pow">
               <alpha>8.2</alpha>
               <beta>2.0</beta>
               <ksi>0.48</ksi>
            </fibers>
            <mat_axis type="angles">
               <theta>0.0</theta>
               <phi>90.0</phi>
            </mat_axis>
            <distribution type="von-Mises-3d">
               <b>1.49</b>
            </distribution>
            <scheme type="fibers-3d-fei">
               <resolution>196</resolution>
            </scheme>
         </solid>
      </material>
   </Material>
   <Mesh>
      <Nodes>
         <node id="1">0,0,-3.3</node>
         <node id="2">0.4,0,-3.3</node>
         <node id="3">0.8,0,-3.3</node>
         <node id="4">1.2,0,-3.3</node>
         <node id="5">1.6,0,-3.3</node>
         <node id="6">2,0,-3.3</node>
         <node id="7">2.4,0,-3.3</node>
         <node id="8">2.8,0,-3.3</node>
         <node id="9">3.2,0,-3.3</node>
         <node id="10">3.6,0,-3.3</node>
         <node id="11">4.1,0,-3.3</node>
         <node id="12">0,0.4,-3.3</node>
         <node id="13">0.4,0.4,-3.3</node>
         <node id="14">0.8,0.4,-3.3</node>
         <node id="15">1.2,0.4,-3.3</node>
         <node id="16">1.6,0.4,-3.3</node>
         <node id="17">2,0.4,-3.3</node>
         <node id="18">2.4,0.4,-3.3</node>
         <node id="19">2.8,0.4,-3.3</node>
         <node id="20">3.2,0.4,-3.3</node>
<!-- ... 945 like lines cut -->
      </Nodes>
      <Elements mat="2" name="solid_mixture" type="hex8">
         <elem id="1"> 1, 2, 13, 12, 100, 101, 112, 111</elem>
         <elem id="2"> 2, 3, 14, 13, 101, 102, 113, 112</elem>
         <elem id="3"> 3, 4, 15, 14, 102, 103, 114, 113</elem>
         <elem id="4"> 4, 5, 16, 15, 103, 104, 115, 114</elem>
         <elem id="5"> 5, 6, 17, 16, 104, 105, 116, 115</elem>
         <elem id="6"> 6, 7, 18, 17, 105, 106, 117, 116</elem>
         <elem id="7"> 7, 8, 19, 18, 106, 107, 118, 117</elem>
         <elem id="8"> 8, 9, 20, 19, 107, 108, 119, 118</elem>
         <elem id="9"> 9, 10, 21, 20, 108, 109, 120, 119</elem>
         <elem id="10"> 10, 11, 22, 21, 109, 110, 121, 120</elem>
         <elem id="11"> 12, 13, 24, 23, 111, 112, 123, 122</elem>
         <elem id="12"> 13, 14, 25, 24, 112, 113, 124, 123</elem>
         <elem id="13"> 14, 15, 26, 25, 113, 114, 125, 124</elem>
         <elem id="14"> 15, 16, 27, 26, 114, 115, 126, 125</elem>
         <elem id="15"> 16, 17, 28, 27, 115, 116, 127, 126</elem>
         <elem id="16"> 17, 18, 29, 28, 116, 117, 128, 127</elem>
         <elem id="17"> 18, 19, 30, 29, 117, 118, 129, 128</elem>
         <elem id="18"> 19, 20, 31, 30, 118, 119, 130, 129</elem>
         <elem id="19"> 20, 21, 32, 31, 119, 120, 131, 130</elem>
         <elem id="20"> 21, 22, 33, 32, 120, 121, 132, 131</elem>
<!-- ... 620 like lines cut -->
      </Elements>
      <Elements mat="1" name="indenter" type="hex8">
         <elem id="641"> 892, 896, 897, 893, 929, 933, 934, 930</elem>
         <elem id="642"> 893, 897, 898, 894, 930, 934, 935, 931</elem>
         <elem id="643"> 894, 898, 899, 895, 931, 935, 936, 932</elem>
         <elem id="644"> 895, 899, 917, 916, 932, 936, 954, 953</elem>
         <elem id="645"> 896, 900, 901, 897, 933, 937, 938, 934</elem>
         <elem id="646"> 897, 901, 902, 898, 934, 938, 939, 935</elem>
         <elem id="647"> 898, 902, 903, 899, 935, 939, 940, 936</elem>
         <elem id="648"> 899, 903, 918, 917, 936, 940, 955, 954</elem>
         <elem id="649"> 900, 904, 905, 901, 937, 941, 942, 938</elem>
         <elem id="650"> 901, 905, 906, 902, 938, 942, 943, 939</elem>
         <elem id="651"> 902, 906, 907, 903, 939, 943, 944, 940</elem>
         <elem id="652"> 903, 907, 919, 918, 940, 944, 956, 955</elem>
         <elem id="653"> 904, 922, 925, 905, 941, 959, 962, 942</elem>
         <elem id="654"> 905, 925, 928, 906, 942, 962, 965, 943</elem>
         <elem id="655"> 906, 928, 919, 907, 943, 965, 956, 944</elem>
         <elem id="656"> 908, 912, 913, 909, 945, 949, 950, 946</elem>
         <elem id="657"> 909, 913, 914, 910, 946, 950, 951, 947</elem>
         <elem id="658"> 910, 914, 915, 911, 947, 951, 952, 948</elem>
         <elem id="659"> 911, 915, 927, 926, 948, 952, 964, 963</elem>
         <elem id="660"> 912, 916, 917, 913, 949, 953, 954, 950</elem>
<!-- ... 7 like lines cut -->
      </Elements>
      <NodeSet name="FixedBottom_z">
         <node id="1"/>
         <node id="2"/>
         <node id="3"/>
         <node id="4"/>
         <node id="5"/>
         <node id="6"/>
         <node id="7"/>
         <node id="8"/>
         <node id="9"/>
         <node id="10"/>
         <node id="11"/>
         <node id="12"/>
         <node id="13"/>
         <node id="14"/>
         <node id="15"/>
         <node id="16"/>
         <node id="17"/>
         <node id="18"/>
         <node id="19"/>
         <node id="20"/>
<!-- ... 79 like lines cut -->
      </NodeSet>
      <NodeSet name="FixedSide_x">
         <node id="1"/>
         <node id="12"/>
         <node id="23"/>
         <node id="34"/>
         <node id="45"/>
         <node id="56"/>
         <node id="67"/>
         <node id="78"/>
         <node id="89"/>
         <node id="100"/>
         <node id="111"/>
         <node id="122"/>
         <node id="133"/>
         <node id="144"/>
         <node id="155"/>
         <node id="166"/>
         <node id="177"/>
         <node id="188"/>
         <node id="199"/>
         <node id="210"/>
<!-- ... 61 like lines cut -->
      </NodeSet>
      <NodeSet name="FixedSide_y">
         <node id="1"/>
         <node id="2"/>
         <node id="3"/>
         <node id="4"/>
         <node id="5"/>
         <node id="6"/>
         <node id="7"/>
         <node id="8"/>
         <node id="9"/>
         <node id="10"/>
         <node id="11"/>
         <node id="100"/>
         <node id="101"/>
         <node id="102"/>
         <node id="103"/>
         <node id="104"/>
         <node id="105"/>
         <node id="106"/>
         <node id="107"/>
         <node id="108"/>
<!-- ... 79 like lines cut -->
      </NodeSet>
      <Surface name="Slave">
         <quad4 id="1"> 892, 893, 897, 896</quad4>
         <quad4 id="2"> 893, 894, 898, 897</quad4>
         <quad4 id="3"> 894, 895, 899, 898</quad4>
         <quad4 id="4"> 895, 916, 917, 899</quad4>
         <quad4 id="5"> 896, 897, 901, 900</quad4>
         <quad4 id="6"> 897, 898, 902, 901</quad4>
         <quad4 id="7"> 898, 899, 903, 902</quad4>
         <quad4 id="8"> 899, 917, 918, 903</quad4>
         <quad4 id="9"> 900, 901, 905, 904</quad4>
         <quad4 id="10"> 901, 902, 906, 905</quad4>
         <quad4 id="11"> 902, 903, 907, 906</quad4>
         <quad4 id="12"> 903, 918, 919, 907</quad4>
         <quad4 id="13"> 904, 905, 925, 922</quad4>
         <quad4 id="14"> 905, 906, 928, 925</quad4>
         <quad4 id="15"> 906, 907, 919, 928</quad4>
         <quad4 id="16"> 908, 909, 913, 912</quad4>
         <quad4 id="17"> 909, 910, 914, 913</quad4>
         <quad4 id="18"> 910, 911, 915, 914</quad4>
         <quad4 id="19"> 911, 926, 927, 915</quad4>
         <quad4 id="20"> 912, 913, 917, 916</quad4>
<!-- ... 7 like lines cut -->
      </Surface>
      <Surface name="Master">
         <quad4 id="1"> 793, 794, 805, 804</quad4>
         <quad4 id="2"> 794, 795, 806, 805</quad4>
         <quad4 id="3"> 795, 796, 807, 806</quad4>
         <quad4 id="4"> 796, 797, 808, 807</quad4>
         <quad4 id="5"> 797, 798, 809, 808</quad4>
         <quad4 id="6"> 798, 799, 810, 809</quad4>
         <quad4 id="7"> 799, 800, 811, 810</quad4>
         <quad4 id="8"> 800, 801, 812, 811</quad4>
         <quad4 id="9"> 801, 802, 813, 812</quad4>
         <quad4 id="10"> 802, 803, 814, 813</quad4>
         <quad4 id="11"> 804, 805, 816, 815</quad4>
         <quad4 id="12"> 805, 806, 817, 816</quad4>
         <quad4 id="13"> 806, 807, 818, 817</quad4>
         <quad4 id="14"> 807, 808, 819, 818</quad4>
         <quad4 id="15"> 808, 809, 820, 819</quad4>
         <quad4 id="16"> 809, 810, 821, 820</quad4>
         <quad4 id="17"> 810, 811, 822, 821</quad4>
         <quad4 id="18"> 811, 812, 823, 822</quad4>
         <quad4 id="19"> 812, 813, 824, 823</quad4>
         <quad4 id="20"> 813, 814, 825, 824</quad4>
<!-- ... 60 like lines cut -->
      </Surface>
      <SurfacePair name="Sliding_Elastic_Contact">
         <primary>Master</primary>
         <secondary>Slave</secondary>
      </SurfacePair>
   </Mesh>
   <MeshDomains>
      <SolidDomain mat="Indenter" name="indenter"/>
      <SolidDomain mat="Sample" name="solid_mixture"/>
   </MeshDomains>
   <Boundary>
      <bc name="FixedDisplacementX" node_set="FixedSide_x" type="fix">
         <dofs>x</dofs>
      </bc>
      <bc name="FixedDisplacementY" node_set="FixedSide_y" type="fix">
         <dofs>y</dofs>
      </bc>
      <bc name="FixedDisplacementZ" node_set="FixedBottom_z" type="fix">
         <dofs>z</dofs>
      </bc>
   </Boundary>
   <Rigid>
      <rigid_constraint name="RigidFixed01" type="fix">
         <rb>1</rb>
         <dofs>Rx,Ry,Ru,Rv,Rw</dofs>
      </rigid_constraint>
      <rigid_constraint name="RigidDipsZ01" type="prescribe">
         <rb>1</rb>
         <dof>Rz</dof>
         <value lc="1">-1.49</value>
         <relative>0</relative>
      </rigid_constraint>
   </Rigid>
   <Contact>
      <contact lc="1" name="SEContact" surface_pair="Sliding_Elastic_Contact"
               type="sliding-elastic">
         <laugon>1</laugon>
         <tolerance>0.2</tolerance>
         <gaptol>0</gaptol>
         <penalty>100</penalty>
         <auto_penalty>1</auto_penalty>
         <two_pass>0</two_pass>
         <search_tol>0.01</search_tol>
         <symmetric_stiffness>0</symmetric_stiffness>
         <search_radius>0.1</search_radius>
         <seg_up>0</seg_up>
         <tension>0</tension>
         <minaug>0</minaug>
         <maxaug>10</maxaug>
         <fric_coeff>0</fric_coeff>
         <smooth_aug>0</smooth_aug>
         <node_reloc>0</node_reloc>
         <flip_primary>0</flip_primary>
         <flip_secondary>0</flip_secondary>
      </contact>
   </Contact>
   <LoadData>
      <load_controller id="1" type="loadcurve">
         <interpolate>SMOOTH</interpolate>
         <points>
            <point>0,0</point>
            <point>1,1</point>
         </points>
      </load_controller>
      <load_controller id="2" type="loadcurve">
         <interpolate>STEP</interpolate>
         <points>
            <point>0,0.1</point>
            <point>0.33,0.1</point>
            <point>0.67,0.1</point>
            <point>1,0.1</point>
         </points>
      </load_controller>
   </LoadData>
   <Output>
      <plotfile type="febio">
         <var type="displacement"/>
         <var type="stress"/>
      </plotfile>
      <logfile>
         <node_data data="ux;uy;uz" file="disp.txt">892</node_data>
         <rigid_body_data data="Fx;Fy;Fz" file="force.txt">1</rigid_body_data>
      </logfile>
   </Output>
</febio_spec>
