<?xml version="1.0" encoding="utf-8"?>
<febio_spec version="3.0">
   <Module type="solid"/>
   <Control>
      <analysis>STATIC</analysis>
      <time_steps>10</time_steps>
      <step_size>0.1</step_size>
      <solver>
         <max_refs>25</max_refs>
         <max_ups>10</max_ups>
         <diverge_reform>1</diverge_reform>
         <reform_each_time_step>1</reform_each_time_step>
         <dtol>0.001</dtol>
         <etol>0.01</etol>
         <rtol>0</rtol>
         <lstol>0.9</lstol>
         <min_residual>1e-20</min_residual>
         <qnmethod>BFGS</qnmethod>
         <symmetric_stiffness>0</symmetric_stiffness>
      </solver>
      <time_stepper>
         <dtmin>0.01</dtmin>
         <dtmax lc="2"/>
         <max_retries>20</max_retries>
         <opt_iter>10</opt_iter>
      </time_stepper>
   </Control>
   <Globals>
      <Constants>
         <T>0</T>
         <R>0</R>
         <Fc>0</Fc>
      </Constants>
   </Globals>
   <Material>
      <material id="1" name="Indenter" type="rigid body">
         <density>1</density>
         <center_of_mass>0,0,0</center_of_mass>
      </material>
      <material id="2" name="Sample" type="solid mixture">
         <solid type="neo-Hookean">
            <density>1</density>
            <E>0.5</E>
            <v>0.2</v>
         </solid>
         <solid type="continuous fiber distribution">
            <density>0</density>
            <fibers type="fiber-exp-pow">
               <alpha>1.2</alpha>
               <beta>5.0</beta>
               <ksi>0.1</ksi>
            </fibers>
            <mat_axis type="angles">
               <theta>0.0</theta>
               <phi>90.0</phi>
            </mat_axis>
            <distribution type="von-Mises-3d">
               <b>0.52</b>
            </distribution>
            <scheme type="fibers-3d-fei">
               <resolution>196</resolution>
            </scheme>
         </solid>
      </material>
   </Material>
   <Mesh>
      <Nodes>
         <node id="1">0,0,-2.7</node>
         <node id="2">0.4,0,-2.7</node>
         <node id="3">0.8,0,-2.7</node>
         <node id="4">1.2,0,-2.7</node>
         <node id="5">1.6,0,-2.7</node>
         <node id="6">2,0,-2.7</node>
         <node id="7">2.4,0,-2.7</node>
         <node id="8">2.8,0,-2.7</node>
         <node id="9">3.2,0,-2.7</node>
         <node id="10">3.6,0,-2.7</node>
         <node id="11">4,0,-2.7</node>
         <node id="12">4.5,0,-2.7</node>
         <node id="13">0,0.4,-2.7</node>
         <node id="14">0.4,0.4,-2.7</node>
         <node id="15">0.8,0.4,-2.7</node>
         <node id="16">1.2,0.4,-2.7</node>
         <node id="17">1.6,0.4,-2.7</node>
         <node id="18">2,0.4,-2.7</node>
         <node id="19">2.4,0.4,-2.7</node>
         <node id="20">2.8,0.4,-2.7</node>
<!-- ... 1878 like lines cut -->
      </Nodes>
      <Elements mat="2" name="solid_mixture" type="hex8">
         <elem id="1"> 1, 2, 14, 13, 229, 230, 242, 241</elem>
         <elem id="2"> 2, 3, 15, 14, 230, 231, 243, 242</elem>
         <elem id="3"> 3, 4, 16, 15, 231, 232, 244, 243</elem>
         <elem id="4"> 4, 5, 17, 16, 232, 233, 245, 244</elem>
         <elem id="5"> 5, 6, 18, 17, 233, 234, 246, 245</elem>
         <elem id="6"> 6, 7, 19, 18, 234, 235, 247, 246</elem>
         <elem id="7"> 7, 8, 20, 19, 235, 236, 248, 247</elem>
         <elem id="8"> 8, 9, 21, 20, 236, 237, 249, 248</elem>
         <elem id="9"> 9, 10, 22, 21, 237, 238, 250, 249</elem>
         <elem id="10"> 10, 11, 23, 22, 238, 239, 251, 250</elem>
         <elem id="11"> 11, 12, 24, 23, 239, 240, 252, 251</elem>
         <elem id="12"> 13, 14, 26, 25, 241, 242, 254, 253</elem>
         <elem id="13"> 14, 15, 27, 26, 242, 243, 255, 254</elem>
         <elem id="14"> 15, 16, 28, 27, 243, 244, 256, 255</elem>
         <elem id="15"> 16, 17, 29, 28, 244, 245, 257, 256</elem>
         <elem id="16"> 17, 18, 30, 29, 245, 246, 258, 257</elem>
         <elem id="17"> 18, 19, 31, 30, 246, 247, 259, 258</elem>
         <elem id="18"> 19, 20, 32, 31, 247, 248, 260, 259</elem>
         <elem id="19"> 20, 21, 33, 32, 248, 249, 261, 260</elem>
         <elem id="20"> 21, 22, 34, 33, 249, 250, 262, 261</elem>
<!-- ... 1366 like lines cut -->
      </Elements>
      <Elements mat="1" name="indenter" type="hex8">
         <elem id="1387"> 1825, 1829, 1830, 1826, 1862, 1866, 1867, 1863</elem>
         <elem id="1388"> 1826, 1830, 1831, 1827, 1863, 1867, 1868, 1864</elem>
         <elem id="1389"> 1827, 1831, 1832, 1828, 1864, 1868, 1869, 1865</elem>
         <elem id="1390"> 1828, 1832, 1850, 1849, 1865, 1869, 1887, 1886</elem>
         <elem id="1391"> 1829, 1833, 1834, 1830, 1866, 1870, 1871, 1867</elem>
         <elem id="1392"> 1830, 1834, 1835, 1831, 1867, 1871, 1872, 1868</elem>
         <elem id="1393"> 1831, 1835, 1836, 1832, 1868, 1872, 1873, 1869</elem>
         <elem id="1394"> 1832, 1836, 1851, 1850, 1869, 1873, 1888, 1887</elem>
         <elem id="1395"> 1833, 1837, 1838, 1834, 1870, 1874, 1875, 1871</elem>
         <elem id="1396"> 1834, 1838, 1839, 1835, 1871, 1875, 1876, 1872</elem>
         <elem id="1397"> 1835, 1839, 1840, 1836, 1872, 1876, 1877, 1873</elem>
         <elem id="1398"> 1836, 1840, 1852, 1851, 1873, 1877, 1889, 1888</elem>
         <elem id="1399"> 1837, 1855, 1858, 1838, 1874, 1892, 1895, 1875</elem>
         <elem id="1400"> 1838, 1858, 1861, 1839, 1875, 1895, 1898, 1876</elem>
         <elem id="1401"> 1839, 1861, 1852, 1840, 1876, 1898, 1889, 1877</elem>
         <elem id="1402"> 1841, 1845, 1846, 1842, 1878, 1882, 1883, 1879</elem>
         <elem id="1403"> 1842, 1846, 1847, 1843, 1879, 1883, 1884, 1880</elem>
         <elem id="1404"> 1843, 1847, 1848, 1844, 1880, 1884, 1885, 1881</elem>
         <elem id="1405"> 1844, 1848, 1860, 1859, 1881, 1885, 1897, 1896</elem>
         <elem id="1406"> 1845, 1849, 1850, 1846, 1882, 1886, 1887, 1883</elem>
<!-- ... 7 like lines cut -->
      </Elements>
      <NodeSet name="FixedBottom_z">
         <node id="1"/>
         <node id="2"/>
         <node id="3"/>
         <node id="4"/>
         <node id="5"/>
         <node id="6"/>
         <node id="7"/>
         <node id="8"/>
         <node id="9"/>
         <node id="10"/>
         <node id="11"/>
         <node id="12"/>
         <node id="13"/>
         <node id="14"/>
         <node id="15"/>
         <node id="16"/>
         <node id="17"/>
         <node id="18"/>
         <node id="19"/>
         <node id="20"/>
<!-- ... 208 like lines cut -->
      </NodeSet>
      <NodeSet name="FixedSide_x">
         <node id="1"/>
         <node id="13"/>
         <node id="25"/>
         <node id="37"/>
         <node id="49"/>
         <node id="61"/>
         <node id="73"/>
         <node id="85"/>
         <node id="97"/>
         <node id="109"/>
         <node id="121"/>
         <node id="133"/>
         <node id="145"/>
         <node id="157"/>
         <node id="169"/>
         <node id="181"/>
         <node id="193"/>
         <node id="205"/>
         <node id="217"/>
         <node id="229"/>
<!-- ... 132 like lines cut -->
      </NodeSet>
      <NodeSet name="FixedSide_y">
         <node id="1"/>
         <node id="2"/>
         <node id="3"/>
         <node id="4"/>
         <node id="5"/>
         <node id="6"/>
         <node id="7"/>
         <node id="8"/>
         <node id="9"/>
         <node id="10"/>
         <node id="11"/>
         <node id="12"/>
         <node id="229"/>
         <node id="230"/>
         <node id="231"/>
         <node id="232"/>
         <node id="233"/>
         <node id="234"/>
         <node id="235"/>
         <node id="236"/>
<!-- ... 76 like lines cut -->
      </NodeSet>
      <Surface name="Slave">
         <quad4 id="1"> 1825, 1826, 1830, 1829</quad4>
         <quad4 id="2"> 1826, 1827, 1831, 1830</quad4>
         <quad4 id="3"> 1827, 1828, 1832, 1831</quad4>
         <quad4 id="4"> 1828, 1849, 1850, 1832</quad4>
         <quad4 id="5"> 1829, 1830, 1834, 1833</quad4>
         <quad4 id="6"> 1830, 1831, 1835, 1834</quad4>
         <quad4 id="7"> 1831, 1832, 1836, 1835</quad4>
         <quad4 id="8"> 1832, 1850, 1851, 1836</quad4>
         <quad4 id="9"> 1833, 1834, 1838, 1837</quad4>
         <quad4 id="10"> 1834, 1835, 1839, 1838</quad4>
         <quad4 id="11"> 1835, 1836, 1840, 1839</quad4>
         <quad4 id="12"> 1836, 1851, 1852, 1840</quad4>
         <quad4 id="13"> 1837, 1838, 1858, 1855</quad4>
         <quad4 id="14"> 1838, 1839, 1861, 1858</quad4>
         <quad4 id="15"> 1839, 1840, 1852, 1861</quad4>
         <quad4 id="16"> 1841, 1842, 1846, 1845</quad4>
         <quad4 id="17"> 1842, 1843, 1847, 1846</quad4>
         <quad4 id="18"> 1843, 1844, 1848, 1847</quad4>
         <quad4 id="19"> 1844, 1859, 1860, 1848</quad4>
         <quad4 id="20"> 1845, 1846, 1850, 1849</quad4>
<!-- ... 7 like lines cut -->
      </Surface>
      <Surface name="Master">
         <quad4 id="1"> 1597, 1598, 1610, 1609</quad4>
         <quad4 id="2"> 1598, 1599, 1611, 1610</quad4>
         <quad4 id="3"> 1599, 1600, 1612, 1611</quad4>
         <quad4 id="4"> 1600, 1601, 1613, 1612</quad4>
         <quad4 id="5"> 1601, 1602, 1614, 1613</quad4>
         <quad4 id="6"> 1602, 1603, 1615, 1614</quad4>
         <quad4 id="7"> 1603, 1604, 1616, 1615</quad4>
         <quad4 id="8"> 1604, 1605, 1617, 1616</quad4>
         <quad4 id="9"> 1605, 1606, 1618, 1617</quad4>
         <quad4 id="10"> 1606, 1607, 1619, 1618</quad4>
         <quad4 id="11"> 1607, 1608, 1620, 1619</quad4>
         <quad4 id="12"> 1609, 1610, 1622, 1621</quad4>
         <quad4 id="13"> 1610, 1611, 1623, 1622</quad4>
         <quad4 id="14"> 1611, 1612, 1624, 1623</quad4>
         <quad4 id="15"> 1612, 1613, 1625, 1624</quad4>
         <quad4 id="16"> 1613, 1614, 1626, 1625</quad4>
         <quad4 id="17"> 1614, 1615, 1627, 1626</quad4>
         <quad4 id="18"> 1615, 1616, 1628, 1627</quad4>
         <quad4 id="19"> 1616, 1617, 1629, 1628</quad4>
         <quad4 id="20"> 1617, 1618, 1630, 1629</quad4>
<!-- ... 178 like lines cut -->
      </Surface>
      <SurfacePair name="Sliding_Elastic_Contact">
         <primary>Master</primary>
         <secondary>Slave</secondary>
      </SurfacePair>
   </Mesh>
   <MeshDomains>
      <SolidDomain mat="Indenter" name="indenter"/>
      <SolidDomain mat="Sample" name="solid_mixture"/>
   </MeshDomains>
   <Boundary>
      <bc name="FixedDisplacementX" node_set="FixedSide_x" type="fix">
         <dofs>x</dofs>
      </bc>
      <bc name="FixedDisplacementY" node_set="FixedSide_y" type="fix">
         <dofs>y</dofs>
      </bc>
      <bc name="FixedDisplacementZ" node_set="FixedBottom_z" type="fix">
         <dofs>z</dofs>
      </bc>
   </Boundary>
   <Rigid>
      <rigid_constraint name="RigidFixed01" type="fix">
         <rb>1</rb>
         <dofs>Rx,Ry,Ru,Rv,Rw</dofs>
      </rigid_constraint>
      <rigid_constraint name="RigidDipsZ01" type="prescribe">
         <rb>1</rb>
         <dof>Rz</dof>
         <value lc="1">-1.22</value>
         <relative>0</relative>
      </rigid_constraint>
   </Rigid>
   <Contact>
      <contact lc="1" name="SEContact" surface_pair="Sliding_Elastic_Contact"
               type="sliding-elastic">
         <laugon>1</laugon>
         <tolerance>0.2</tolerance>
         <gaptol>0</gaptol>
         <penalty>100</penalty>
         <auto_penalty>1</auto_penalty>
         <two_pass>0</two_pass>
         <search_tol>0.01</search_tol>
         <symmetric_stiffness>0</symmetric_stiffness>
         <search_radius>0.1</search_radius>
         <seg_up>0</seg_up>
         <tension>0</tension>
         <minaug>0</minaug>
         <maxaug>10</maxaug>
         <fric_coeff>0</fric_coeff>
         <smooth_aug>0</smooth_aug>
         <node_reloc>0</node_reloc>
         <flip_primary>0</flip_primary>
         <flip_secondary>0</flip_secondary>
      </contact>
   </Contact>
   <LoadData>
      <load_controller id="1" type="loadcurve">
         <interpolate>SMOOTH</interpolate>
         <points>
            <point>0,0</point>
            <point>1,1</point>
         </points>
      </load_controller>
      <load_controller id="2" type="loadcurve">
         <interpolate>STEP</interpolate>
         <points>
            <point>0,0.33</point>
            <point>0.33,0.33</point>
            <point>0.67,0.34</point>
            <point>1,0.33</point>
         </points>
      </load_controller>
   </LoadData>
   <Output>
      <plotfile type="febio">
         <var type="displacement"/>
         <var type="stress"/>
      </plotfile>
      <logfile>
         <node_data data="ux;uy;uz" file="disp.txt">1825</node_data>
         <rigid_body_data data="Fx;Fy;Fz" file="force.txt">1</rigid_body_data>
      </logfile>
   </Output>
</febio_spec>