<?xml version="1.0" encoding="utf-8"?>
<febio_spec version="3.0">
   <Module type="solid"/>
   <Control>
      <analysis>STATIC</analysis>
      <time_steps>10</time_steps>
      <step_size>0.1</step_size>
      <solver>
         <max_refs>25</max_refs>
         <max_ups>10</max_ups>
         <diverge_reform>1</diverge_reform>
         <reform_each_time_step>1</reform_each_time_step>
         <dtol>0.001</dtol>
         <etol>0.01</etol>
         <rtol>0</rtol>
         <lstol>0.9</lstol>
         <min_residual>1e-20</min_residual>
         <qnmethod>BFGS</qnmethod>
         <symmetric_stiffness>0</symmetric_stiffness>
      </solver>
      <time_stepper>
         <dtmin>0.01</dtmin>
         <dtmax lc="2"/>
         <max_retries>20</max_retries>
         <opt_iter>10</opt_iter>
      </time_stepper>
   </Control>
   <Globals>
      <Constants>
         <T>0</T>
         <R>0</R>
         <Fc>0</Fc>
      </Constants>
   </Globals>
   <Material>
      <material id="1" name="Indenter" type="rigid body">
         <density>1</density>
         <center_of_mass>0,0,0</center_of_mass>
      </material>
      <material id="2" name="Sample" type="solid mixture">
         <solid type="neo-Hookean">
            <density>1</density>
            <E>0.5</E>
            <v>0.2</v>
         </solid>
         <solid type="continuous fiber distribution">
            <density>0</density>
            <fibers type="fiber-exp-pow">
               <alpha>1.2</alpha>
               <beta>5.0</beta>
               <ksi>0.1</ksi>
            </fibers>
            <mat_axis type="angles">
               <theta>0.0</theta>
               <phi>90.0</phi>
            </mat_axis>
            <distribution type="von-Mises-3d">
               <b>0.64</b>
            </distribution>
            <scheme type="fibers-3d-fei">
               <resolution>196</resolution>
            </scheme>
         </solid>
      </material>
   </Material>
   <Mesh>
      <Nodes>
         <node id="1">0,0,-2.82</node>
         <node id="2">0.4,0,-2.82</node>
         <node id="3">0.8,0,-2.82</node>
         <node id="4">1.2,0,-2.82</node>
         <node id="5">1.6,0,-2.82</node>
         <node id="6">2,0,-2.82</node>
         <node id="7">2.4,0,-2.82</node>
         <node id="8">2.8,0,-2.82</node>
         <node id="9">3.2,0,-2.82</node>
         <node id="10">3.6,0,-2.82</node>
         <node id="11">4,0,-2.82</node>
         <node id="12">4.4,0,-2.82</node>
         <node id="13">4.8,0,-2.82</node>
         <node id="14">5,0,-2.82</node>
         <node id="15">0,0.4,-2.82</node>
         <node id="16">0.4,0.4,-2.82</node>
         <node id="17">0.8,0.4,-2.82</node>
         <node id="18">1.2,0.4,-2.82</node>
         <node id="19">1.6,0.4,-2.82</node>
         <node id="20">2,0.4,-2.82</node>
<!-- ... 1846 like lines cut -->
      </Nodes>
      <Elements mat="2" name="solid_mixture" type="hex8">
         <elem id="1"> 1, 2, 16, 15, 225, 226, 240, 239</elem>
         <elem id="2"> 2, 3, 17, 16, 226, 227, 241, 240</elem>
         <elem id="3"> 3, 4, 18, 17, 227, 228, 242, 241</elem>
         <elem id="4"> 4, 5, 19, 18, 228, 229, 243, 242</elem>
         <elem id="5"> 5, 6, 20, 19, 229, 230, 244, 243</elem>
         <elem id="6"> 6, 7, 21, 20, 230, 231, 245, 244</elem>
         <elem id="7"> 7, 8, 22, 21, 231, 232, 246, 245</elem>
         <elem id="8"> 8, 9, 23, 22, 232, 233, 247, 246</elem>
         <elem id="9"> 9, 10, 24, 23, 233, 234, 248, 247</elem>
         <elem id="10"> 10, 11, 25, 24, 234, 235, 249, 248</elem>
         <elem id="11"> 11, 12, 26, 25, 235, 236, 250, 249</elem>
         <elem id="12"> 12, 13, 27, 26, 236, 237, 251, 250</elem>
         <elem id="13"> 13, 14, 28, 27, 237, 238, 252, 251</elem>
         <elem id="14"> 15, 16, 30, 29, 239, 240, 254, 253</elem>
         <elem id="15"> 16, 17, 31, 30, 240, 241, 255, 254</elem>
         <elem id="16"> 17, 18, 32, 31, 241, 242, 256, 255</elem>
         <elem id="17"> 18, 19, 33, 32, 242, 243, 257, 256</elem>
         <elem id="18"> 19, 20, 34, 33, 243, 244, 258, 257</elem>
         <elem id="19"> 20, 21, 35, 34, 244, 245, 259, 258</elem>
         <elem id="20"> 21, 22, 36, 35, 245, 246, 260, 259</elem>
<!-- ... 1345 like lines cut -->
      </Elements>
      <Elements mat="1" name="indenter" type="hex8">
         <elem id="1366"> 1793, 1797, 1798, 1794, 1830, 1834, 1835, 1831</elem>
         <elem id="1367"> 1794, 1798, 1799, 1795, 1831, 1835, 1836, 1832</elem>
         <elem id="1368"> 1795, 1799, 1800, 1796, 1832, 1836, 1837, 1833</elem>
         <elem id="1369"> 1796, 1800, 1818, 1817, 1833, 1837, 1855, 1854</elem>
         <elem id="1370"> 1797, 1801, 1802, 1798, 1834, 1838, 1839, 1835</elem>
         <elem id="1371"> 1798, 1802, 1803, 1799, 1835, 1839, 1840, 1836</elem>
         <elem id="1372"> 1799, 1803, 1804, 1800, 1836, 1840, 1841, 1837</elem>
         <elem id="1373"> 1800, 1804, 1819, 1818, 1837, 1841, 1856, 1855</elem>
         <elem id="1374"> 1801, 1805, 1806, 1802, 1838, 1842, 1843, 1839</elem>
         <elem id="1375"> 1802, 1806, 1807, 1803, 1839, 1843, 1844, 1840</elem>
         <elem id="1376"> 1803, 1807, 1808, 1804, 1840, 1844, 1845, 1841</elem>
         <elem id="1377"> 1804, 1808, 1820, 1819, 1841, 1845, 1857, 1856</elem>
         <elem id="1378"> 1805, 1823, 1826, 1806, 1842, 1860, 1863, 1843</elem>
         <elem id="1379"> 1806, 1826, 1829, 1807, 1843, 1863, 1866, 1844</elem>
         <elem id="1380"> 1807, 1829, 1820, 1808, 1844, 1866, 1857, 1845</elem>
         <elem id="1381"> 1809, 1813, 1814, 1810, 1846, 1850, 1851, 1847</elem>
         <elem id="1382"> 1810, 1814, 1815, 1811, 1847, 1851, 1852, 1848</elem>
         <elem id="1383"> 1811, 1815, 1816, 1812, 1848, 1852, 1853, 1849</elem>
         <elem id="1384"> 1812, 1816, 1828, 1827, 1849, 1853, 1865, 1864</elem>
         <elem id="1385"> 1813, 1817, 1818, 1814, 1850, 1854, 1855, 1851</elem>
<!-- ... 7 like lines cut -->
      </Elements>
      <NodeSet name="FixedBottom_z">
         <node id="1"/>
         <node id="2"/>
         <node id="3"/>
         <node id="4"/>
         <node id="5"/>
         <node id="6"/>
         <node id="7"/>
         <node id="8"/>
         <node id="9"/>
         <node id="10"/>
         <node id="11"/>
         <node id="12"/>
         <node id="13"/>
         <node id="14"/>
         <node id="15"/>
         <node id="16"/>
         <node id="17"/>
         <node id="18"/>
         <node id="19"/>
         <node id="20"/>
<!-- ... 204 like lines cut -->
      </NodeSet>
      <NodeSet name="FixedSide_x">
         <node id="1"/>
         <node id="15"/>
         <node id="29"/>
         <node id="43"/>
         <node id="57"/>
         <node id="71"/>
         <node id="85"/>
         <node id="99"/>
         <node id="113"/>
         <node id="127"/>
         <node id="141"/>
         <node id="155"/>
         <node id="169"/>
         <node id="183"/>
         <node id="197"/>
         <node id="211"/>
         <node id="225"/>
         <node id="239"/>
         <node id="253"/>
         <node id="267"/>
<!-- ... 108 like lines cut -->
      </NodeSet>
      <NodeSet name="FixedSide_y">
         <node id="1"/>
         <node id="2"/>
         <node id="3"/>
         <node id="4"/>
         <node id="5"/>
         <node id="6"/>
         <node id="7"/>
         <node id="8"/>
         <node id="9"/>
         <node id="10"/>
         <node id="11"/>
         <node id="12"/>
         <node id="13"/>
         <node id="14"/>
         <node id="225"/>
         <node id="226"/>
         <node id="227"/>
         <node id="228"/>
         <node id="229"/>
         <node id="230"/>
<!-- ... 92 like lines cut -->
      </NodeSet>
      <Surface name="Slave">
         <quad4 id="1"> 1793, 1794, 1798, 1797</quad4>
         <quad4 id="2"> 1794, 1795, 1799, 1798</quad4>
         <quad4 id="3"> 1795, 1796, 1800, 1799</quad4>
         <quad4 id="4"> 1796, 1817, 1818, 1800</quad4>
         <quad4 id="5"> 1797, 1798, 1802, 1801</quad4>
         <quad4 id="6"> 1798, 1799, 1803, 1802</quad4>
         <quad4 id="7"> 1799, 1800, 1804, 1803</quad4>
         <quad4 id="8"> 1800, 1818, 1819, 1804</quad4>
         <quad4 id="9"> 1801, 1802, 1806, 1805</quad4>
         <quad4 id="10"> 1802, 1803, 1807, 1806</quad4>
         <quad4 id="11"> 1803, 1804, 1808, 1807</quad4>
         <quad4 id="12"> 1804, 1819, 1820, 1808</quad4>
         <quad4 id="13"> 1805, 1806, 1826, 1823</quad4>
         <quad4 id="14"> 1806, 1807, 1829, 1826</quad4>
         <quad4 id="15"> 1807, 1808, 1820, 1829</quad4>
         <quad4 id="16"> 1809, 1810, 1814, 1813</quad4>
         <quad4 id="17"> 1810, 1811, 1815, 1814</quad4>
         <quad4 id="18"> 1811, 1812, 1816, 1815</quad4>
         <quad4 id="19"> 1812, 1827, 1828, 1816</quad4>
         <quad4 id="20"> 1813, 1814, 1818, 1817</quad4>
<!-- ... 7 like lines cut -->
      </Surface>
      <Surface name="Master">
         <quad4 id="1"> 1569, 1570, 1584, 1583</quad4>
         <quad4 id="2"> 1570, 1571, 1585, 1584</quad4>
         <quad4 id="3"> 1571, 1572, 1586, 1585</quad4>
         <quad4 id="4"> 1572, 1573, 1587, 1586</quad4>
         <quad4 id="5"> 1573, 1574, 1588, 1587</quad4>
         <quad4 id="6"> 1574, 1575, 1589, 1588</quad4>
         <quad4 id="7"> 1575, 1576, 1590, 1589</quad4>
         <quad4 id="8"> 1576, 1577, 1591, 1590</quad4>
         <quad4 id="9"> 1577, 1578, 1592, 1591</quad4>
         <quad4 id="10"> 1578, 1579, 1593, 1592</quad4>
         <quad4 id="11"> 1579, 1580, 1594, 1593</quad4>
         <quad4 id="12"> 1580, 1581, 1595, 1594</quad4>
         <quad4 id="13"> 1581, 1582, 1596, 1595</quad4>
         <quad4 id="14"> 1583, 1584, 1598, 1597</quad4>
         <quad4 id="15"> 1584, 1585, 1599, 1598</quad4>
         <quad4 id="16"> 1585, 1586, 1600, 1599</quad4>
         <quad4 id="17"> 1586, 1587, 1601, 1600</quad4>
         <quad4 id="18"> 1587, 1588, 1602, 1601</quad4>
         <quad4 id="19"> 1588, 1589, 1603, 1602</quad4>
         <quad4 id="20"> 1589, 1590, 1604, 1603</quad4>
<!-- ... 175 like lines cut -->
      </Surface>
      <SurfacePair name="Sliding_Elastic_Contact">
         <primary>Master</primary>
         <secondary>Slave</secondary>
      </SurfacePair>
   </Mesh>
   <MeshDomains>
      <SolidDomain mat="Indenter" name="indenter"/>
      <SolidDomain mat="Sample" name="solid_mixture"/>
   </MeshDomains>
   <Boundary>
      <bc name="FixedDisplacementX" node_set="FixedSide_x" type="fix">
         <dofs>x</dofs>
      </bc>
      <bc name="FixedDisplacementY" node_set="FixedSide_y" type="fix">
         <dofs>y</dofs>
      </bc>
      <bc name="FixedDisplacementZ" node_set="FixedBottom_z" type="fix">
         <dofs>z</dofs>
      </bc>
   </Boundary>
   <Rigid>
      <rigid_constraint name="RigidFixed01" type="fix">
         <rb>1</rb>
         <dofs>Rx,Ry,Ru,Rv,Rw</dofs>
      </rigid_constraint>
      <rigid_constraint name="RigidDipsZ01" type="prescribe">
         <rb>1</rb>
         <dof>Rz</dof>
         <value lc="1">-1.27</value>
         <relative>0</relative>
      </rigid_constraint>
   </Rigid>
   <Contact>
      <contact lc="1" name="SEContact" surface_pair="Sliding_Elastic_Contact"
               type="sliding-elastic">
         <laugon>1</laugon>
         <tolerance>0.2</tolerance>
         <gaptol>0</gaptol>
         <penalty>100</penalty>
         <auto_penalty>1</auto_penalty>
         <two_pass>0</two_pass>
         <search_tol>0.01</search_tol>
         <symmetric_stiffness>0</symmetric_stiffness>
         <search_radius>0.1</search_radius>
         <seg_up>0</seg_up>
         <tension>0</tension>
         <minaug>0</minaug>
         <maxaug>10</maxaug>
         <fric_coeff>0</fric_coeff>
         <smooth_aug>0</smooth_aug>
         <node_reloc>0</node_reloc>
         <flip_primary>0</flip_primary>
         <flip_secondary>0</flip_secondary>
      </contact>
   </Contact>
   <LoadData>
      <load_controller id="1" type="loadcurve">
         <interpolate>SMOOTH</interpolate>
         <points>
            <point>0,0</point>
            <point>1,1</point>
         </points>
      </load_controller>
      <load_controller id="2" type="loadcurve">
         <interpolate>STEP</interpolate>
         <points>
            <point>0,0.33</point>
            <point>0.33,0.33</point>
            <point>0.67,0.34</point>
            <point>1,0.33</point>
         </points>
      </load_controller>
   </LoadData>
   <Output>
      <plotfile type="febio">
         <var type="displacement"/>
         <var type="stress"/>
      </plotfile>
      <logfile>
         <node_data data="ux;uy;uz" file="disp.txt">1793</node_data>
         <rigid_body_data data="Fx;Fy;Fz" file="force.txt">1</rigid_body_data>
      </logfile>
   </Output>
</febio_spec>