<?xml version="1.0" encoding="ISO-8859-1"?>
<febio_spec version="3.0">
	<Module type="biphasic"/>
	<Control>
		<analysis>TRANSIENT</analysis>
		<time_steps>1425</time_steps>
		<step_size>1</step_size>
		<solver>
			<max_refs>25</max_refs>
			<max_ups>10</max_ups>
			<diverge_reform>1</diverge_reform>
			<reform_each_time_step>1</reform_each_time_step>
			<dtol>0.001</dtol>
			<etol>0.01</etol>
			<rtol>0</rtol>
			<ptol>0.01</ptol>
			<lstol>0.9</lstol>
			<min_residual>1e-20</min_residual>
			<qnmethod>BROYDEN</qnmethod>
			<mixed_formulation>default</mixed_formulation>
			<symmetric_stiffness>0</symmetric_stiffness>
		</solver>
		<time_stepper>
			<dtmin>0.01</dtmin>
			<dtmax lc="1"></dtmax>
			<max_retries>20</max_retries>
			<opt_iter>10</opt_iter>
		</time_stepper>
	</Control>
	<Globals>
		<Constants>
			<T>0</T>
			<R>0</R>
			<Fc>0</Fc>
		</Constants>
	</Globals>
	<Material>
		<material id="1" name="Indenter" type="rigid body">
			<density>1</density>
			<center_of_mass>0,0,0</center_of_mass>
		</material>
		<material id="2" name="Sample" type="biphasic">
			<phi0>0.2</phi0>
			<fluid_density>1</fluid_density>
			<tau>0</tau>
			<solid type="viscoelastic">
				<density>1</density>
				<g1>2.1</g1>
				<g2>0</g2>
				<g3>0</g3>
				<g4>0</g4>
				<g5>0</g5>
				<g6>0</g6>
				<t1>100</t1>
				<t2>1</t2>
				<t3>1</t3>
				<t4>1</t4>
				<t5>1</t5>
				<t6>1</t6>
				<elastic type="solid mixture">
					<density>1</density>
					<solid type="neo-Hookean">
						<E type="math">0.00161</E>
						<v>0.22</v>
					</solid>
					<solid type="continuous fiber distribution">
						<density>0</density>
						<mat_axis type="angles">
							<theta>0</theta>
							<phi>90</phi>
						</mat_axis>
						<fibers type="fiber-exp-pow">
							<alpha>0.01025</alpha>
							<beta>2</beta>
							<ksi>0.161</ksi>
							<mu>0</mu>
						</fibers>
						<distribution type="von-Mises-3d">
							<b>1.49</b>
						</distribution>
						<scheme type="fibers-3d-fei">
							<resolution>196</resolution>
						</scheme>
					</solid>
				</elastic>
			</solid>
			<permeability type="perm-const-iso">
				<perm>7.28</perm>
			</permeability>
		</material>
	</Material>
	<Mesh>
		<Nodes name="Object01">
			<node id="1">0,0,-3.3</node>
			<node id="2">0.4,0,-3.3</node>
			<node id="3">0.8,0,-3.3</node>
			<node id="4">1.2,0,-3.3</node>
			<node id="5">1.6,0,-3.3</node>
			<node id="6">2,0,-3.3</node>
			<node id="7">2.4,0,-3.3</node>
			<node id="8">2.8,0,-3.3</node>
			<node id="9">3.2,0,-3.3</node>
			<node id="10">3.6,0,-3.3</node>
			<node id="11">4.1,0,-3.3</node>
			<node id="12">0,0.4,-3.3</node>
			<node id="13">0.4,0.4,-3.3</node>
			<node id="14">0.8,0.4,-3.3</node>
			<node id="15">1.2,0.4,-3.3</node>
			<node id="16">1.6,0.4,-3.3</node>
			<node id="17">2,0.4,-3.3</node>
			<node id="18">2.4,0.4,-3.3</node>
			<node id="19">2.8,0.4,-3.3</node>
			<node id="20">3.2,0.4,-3.3</node>
<!-- ... 2589 like lines cut -->
		</Nodes>
		<Elements type="hex8" name="solid_mixture">
			<elem id="1">     1,     2,    13,    12,   100,   101,   112,   111</elem>
			<elem id="2">     2,     3,    14,    13,   101,   102,   113,   112</elem>
			<elem id="3">     3,     4,    15,    14,   102,   103,   114,   113</elem>
			<elem id="4">     4,     5,    16,    15,   103,   104,   115,   114</elem>
			<elem id="5">     5,     6,    17,    16,   104,   105,   116,   115</elem>
			<elem id="6">     6,     7,    18,    17,   105,   106,   117,   116</elem>
			<elem id="7">     7,     8,    19,    18,   106,   107,   118,   117</elem>
			<elem id="8">     8,     9,    20,    19,   107,   108,   119,   118</elem>
			<elem id="9">     9,    10,    21,    20,   108,   109,   120,   119</elem>
			<elem id="10">    12,    13,    24,    23,   111,   112,   123,   122</elem>
			<elem id="11">    13,    14,    25,    24,   112,   113,   124,   123</elem>
			<elem id="12">    14,    15,    26,    25,   113,   114,   125,   124</elem>
			<elem id="13">    15,    16,    27,    26,   114,   115,   126,   125</elem>
			<elem id="14">    16,    17,    28,    27,   115,   116,   127,   126</elem>
			<elem id="15">    17,    18,    29,    28,   116,   117,   128,   127</elem>
			<elem id="16">    18,    19,    30,    29,   117,   118,   129,   128</elem>
			<elem id="17">    19,    20,    31,    30,   118,   119,   130,   129</elem>
			<elem id="18">    20,    21,    32,    31,   119,   120,   131,   130</elem>
			<elem id="19">    23,    24,    35,    34,   122,   123,   134,   133</elem>
			<elem id="20">    24,    25,    36,    35,   123,   124,   135,   134</elem>
<!-- ... 1996 like lines cut -->
		</Elements>
		<Elements type="hex8" name="indenter">
			<elem id="2017">   892,   896,   897,   893,   929,   933,   934,   930</elem>
			<elem id="2018">   893,   897,   898,   894,   930,   934,   935,   931</elem>
			<elem id="2019">   894,   898,   899,   895,   931,   935,   936,   932</elem>
			<elem id="2020">   895,   899,   917,   916,   932,   936,   954,   953</elem>
			<elem id="2021">   896,   900,   901,   897,   933,   937,   938,   934</elem>
			<elem id="2022">   897,   901,   902,   898,   934,   938,   939,   935</elem>
			<elem id="2023">   898,   902,   903,   899,   935,   939,   940,   936</elem>
			<elem id="2024">   899,   903,   918,   917,   936,   940,   955,   954</elem>
			<elem id="2025">   900,   904,   905,   901,   937,   941,   942,   938</elem>
			<elem id="2026">   901,   905,   906,   902,   938,   942,   943,   939</elem>
			<elem id="2027">   902,   906,   907,   903,   939,   943,   944,   940</elem>
			<elem id="2028">   903,   907,   919,   918,   940,   944,   956,   955</elem>
			<elem id="2029">   904,   922,   925,   905,   941,   959,   962,   942</elem>
			<elem id="2030">   905,   925,   928,   906,   942,   962,   965,   943</elem>
			<elem id="2031">   906,   928,   919,   907,   943,   965,   956,   944</elem>
			<elem id="2032">   908,   912,   913,   909,   945,   949,   950,   946</elem>
			<elem id="2033">   909,   913,   914,   910,   946,   950,   951,   947</elem>
			<elem id="2034">   910,   914,   915,   911,   947,   951,   952,   948</elem>
			<elem id="2035">   911,   915,   927,   926,   948,   952,   964,   963</elem>
			<elem id="2036">   912,   916,   917,   913,   949,   953,   954,   950</elem>
<!-- ... 7 like lines cut -->
		</Elements>
		<NodeSet name="FixedSide_x">
			<n id="1"/>
			<n id="12"/>
			<n id="23"/>
			<n id="34"/>
			<n id="45"/>
			<n id="56"/>
			<n id="67"/>
			<n id="78"/>
			<n id="89"/>
			<n id="100"/>
			<n id="111"/>
			<n id="122"/>
			<n id="133"/>
			<n id="144"/>
			<n id="155"/>
			<n id="166"/>
			<n id="177"/>
			<n id="188"/>
			<n id="199"/>
			<n id="210"/>
<!-- ... 61 like lines cut -->
		</NodeSet>
		<NodeSet name="FixedSide_y">
			<n id="1"/>
			<n id="2"/>
			<n id="3"/>
			<n id="4"/>
			<n id="5"/>
			<n id="6"/>
			<n id="7"/>
			<n id="8"/>
			<n id="9"/>
			<n id="10"/>
			<n id="11"/>
			<n id="100"/>
			<n id="101"/>
			<n id="102"/>
			<n id="103"/>
			<n id="104"/>
			<n id="105"/>
			<n id="106"/>
			<n id="107"/>
			<n id="108"/>
<!-- ... 79 like lines cut -->
		</NodeSet>
		<NodeSet name="FixedBottom_z">
			<n id="1"/>
			<n id="2"/>
			<n id="3"/>
			<n id="4"/>
			<n id="5"/>
			<n id="6"/>
			<n id="7"/>
			<n id="8"/>
			<n id="9"/>
			<n id="10"/>
			<n id="11"/>
			<n id="12"/>
			<n id="13"/>
			<n id="14"/>
			<n id="15"/>
			<n id="16"/>
			<n id="17"/>
			<n id="18"/>
			<n id="19"/>
			<n id="20"/>
<!-- ... 79 like lines cut -->
		</NodeSet>
		<NodeSet name="nodeset01">
			<n id="892"/>
		</NodeSet>
		<NodeSet name="nodeset01">
			<n id="892"/>
		</NodeSet>
		<Surface name="FixedPressure">
			<quad4 id="1">    11,    22,   121,   110</quad4>
			<quad4 id="2">    22,    33,   132,   121</quad4>
			<quad4 id="3">    33,    44,   143,   132</quad4>
			<quad4 id="4">    44,    55,   154,   143</quad4>
			<quad4 id="5">    55,    66,   165,   154</quad4>
			<quad4 id="6">    66,    77,   176,   165</quad4>
			<quad4 id="7">    77,    88,   187,   176</quad4>
			<quad4 id="8">   110,   121,   220,   209</quad4>
			<quad4 id="9">   121,   132,   231,   220</quad4>
			<quad4 id="10">   132,   143,   242,   231</quad4>
			<quad4 id="11">   143,   154,   253,   242</quad4>
			<quad4 id="12">   154,   165,   264,   253</quad4>
			<quad4 id="13">   165,   176,   275,   264</quad4>
			<quad4 id="14">   176,   187,   286,   275</quad4>
			<quad4 id="15">   209,   220,   319,   308</quad4>
			<quad4 id="16">   220,   231,   330,   319</quad4>
			<quad4 id="17">   231,   242,   341,   330</quad4>
			<quad4 id="18">   242,   253,   352,   341</quad4>
			<quad4 id="19">   253,   264,   363,   352</quad4>
			<quad4 id="20">   264,   275,   374,   363</quad4>
<!-- ... 292 like lines cut -->
		</Surface>
		<Surface name="Primary">
			<quad4 id="1">   804,   793,   794,   805</quad4>
			<quad4 id="2">   805,   794,   795,   806</quad4>
			<quad4 id="3">   806,   795,   796,   807</quad4>
			<quad4 id="4">   807,   796,   797,   808</quad4>
			<quad4 id="5">   808,   797,   798,   809</quad4>
			<quad4 id="6">   809,   798,   799,   810</quad4>
			<quad4 id="7">   810,   799,   800,   811</quad4>
			<quad4 id="8">   811,   800,   801,   812</quad4>
			<quad4 id="9">   812,   801,   802,   813</quad4>
			<quad4 id="10">   815,   804,   805,   816</quad4>
			<quad4 id="11">   816,   805,   806,   817</quad4>
			<quad4 id="12">   817,   806,   807,   818</quad4>
			<quad4 id="13">   818,   807,   808,   819</quad4>
			<quad4 id="14">   819,   808,   809,   820</quad4>
			<quad4 id="15">   820,   809,   810,   821</quad4>
			<quad4 id="16">   821,   810,   811,   822</quad4>
			<quad4 id="17">   822,   811,   812,   823</quad4>
			<quad4 id="18">   823,   812,   813,   824</quad4>
			<quad4 id="19">   826,   815,   816,   827</quad4>
			<quad4 id="20">   827,   816,   817,   828</quad4>
<!-- ... 148 like lines cut -->
		</Surface>
		<Surface name="Secondary">
			<quad4 id="1">   893,   897,   896,   892</quad4>
			<quad4 id="2">   894,   898,   897,   893</quad4>
			<quad4 id="3">   895,   899,   898,   894</quad4>
			<quad4 id="4">   916,   917,   899,   895</quad4>
			<quad4 id="5">   897,   901,   900,   896</quad4>
			<quad4 id="6">   898,   902,   901,   897</quad4>
			<quad4 id="7">   899,   903,   902,   898</quad4>
			<quad4 id="8">   917,   918,   903,   899</quad4>
			<quad4 id="9">   901,   905,   904,   900</quad4>
			<quad4 id="10">   902,   906,   905,   901</quad4>
			<quad4 id="11">   903,   907,   906,   902</quad4>
			<quad4 id="12">   918,   919,   907,   903</quad4>
			<quad4 id="13">   905,   925,   922,   904</quad4>
			<quad4 id="14">   906,   928,   925,   905</quad4>
			<quad4 id="15">   907,   919,   928,   906</quad4>
			<quad4 id="16">   909,   913,   912,   908</quad4>
			<quad4 id="17">   910,   914,   913,   909</quad4>
			<quad4 id="18">   911,   915,   914,   910</quad4>
			<quad4 id="19">   926,   927,   915,   911</quad4>
			<quad4 id="20">   913,   917,   916,   912</quad4>
<!-- ... 7 like lines cut -->
		</Surface>
		<SurfacePair name="SEContact">
			<primary>Primary</primary>
			<secondary>Secondary</secondary>
		</SurfacePair>
	</Mesh>
	<MeshDomains>
		<SolidDomain name="solid_mixture" mat="Sample"/>
		<SolidDomain name="indenter" mat="Indenter"/>
	</MeshDomains>
	<Boundary>
		<bc name="FixedDisplacementX" type="fix" node_set="FixedSide_x">
			<dofs>x</dofs>
		</bc>
		<bc name="FixedDisplacementY" type="fix" node_set="FixedSide_y">
			<dofs>y</dofs>
		</bc>
		<bc name="FixedDisplacementZ" type="fix" node_set="FixedBottom_z">
			<dofs>z</dofs>
		</bc>
		<bc name="FixedEffectiveFluidPressure1" type="fix" node_set="@surface:FixedPressure">
			<dofs>p</dofs>
		</bc>
	</Boundary>
	<Rigid>
		<rigid_constraint name="RigidFixed01" type="fix">
			<rb>1</rb>
			<dofs>Rx,Ry,Ru,Rv,Rw</dofs>
		</rigid_constraint>
		<rigid_constraint name="RigidDipsZ01" type="prescribe">
			<rb>1</rb>
			<dof>Rz</dof>
			<value lc="2">-1.485</value>
			<relative>0</relative>
		</rigid_constraint>
	</Rigid>
	<Contact>
		<contact type="sliding-biphasic" name="SEContact" surface_pair="SEContact">
			<laugon>1</laugon>
			<tolerance>0.2</tolerance>
			<gaptol>0</gaptol>
			<ptol>0</ptol>
			<penalty>200</penalty>
			<two_pass>0</two_pass>
			<auto_penalty>1</auto_penalty>
			<pressure_penalty>100</pressure_penalty>
			<symmetric_stiffness>0</symmetric_stiffness>
			<search_radius>1</search_radius>
			<seg_up>0</seg_up>
			<minaug>0</minaug>
			<maxaug>10</maxaug>
			<search_tol>0.01</search_tol>
			<update_penalty>0</update_penalty>
			<smooth_aug>0</smooth_aug>
			<fric_coeff>0</fric_coeff>
			<contact_frac>0</contact_frac>
			<smooth_fls>0</smooth_fls>
			<knmult>1</knmult>
			<node_reloc>0</node_reloc>
			<flip_primary>0</flip_primary>
			<flip_secondary>0</flip_secondary>
			<shell_bottom_primary>0</shell_bottom_primary>
			<shell_bottom_secondary>0</shell_bottom_secondary>
		</contact>
	</Contact>
	<LoadData>
		<load_controller id="1" type="loadcurve">
			<interpolate>STEP</interpolate>
			<points>
				<point>0,0</point>
				<point>15,1</point>
				<point>255,50</point>
				<point>270,1</point>
				<point>690,50</point>
				<point>705,1</point>
				<point>1425,50</point>
			</points>
		</load_controller>
		<load_controller id="2" type="loadcurve">
			<interpolate>LINEAR</interpolate>
			<points>
				<point>0,0</point>
				<point>15,0.33</point>
				<point>255,0.33</point>
				<point>270,0.67</point>
				<point>690,0.67</point>
				<point>705,1</point>
				<point>1425,1</point>
			</points>
		</load_controller>
	</LoadData>
	<Output>
		<plotfile type="febio">
			<var type="contact area"/>
			<var type="contact force"/>
			<var type="contact gap"/>
			<var type="contact pressure"/>
			<var type="displacement"/>
			<var type="reaction forces"/>
			<var type="rigid force"/>
			<var type="stress"/>
			<var type="effective fluid pressure"/>
			<var type="fluid pressure"/>
			<var type="fluid flux"/>
			<var type="fluid force"/>
			<var type="fluid load support"/>
			<var type="local fluid load support"/>
			<var type="solid stress"/>
		</plotfile>
		<logfile>
			<node_data data="ux;uy;uz" file="disp.txt" node_set="nodeset01"/>
			<rigid_body_data data="Fx;Fy;Fz"/>
		</logfile>
	</Output>
</febio_spec>
