<?xml version="1.0" encoding="ISO-8859-1"?>
<febio_spec version="3.0">
	<Module type="biphasic"/>
	<Control>
		<analysis>TRANSIENT</analysis>
		<time_steps>1425</time_steps>
		<step_size>1</step_size>
		<solver>
			<max_refs>25</max_refs>
			<max_ups>10</max_ups>
			<diverge_reform>1</diverge_reform>
			<reform_each_time_step>1</reform_each_time_step>
			<dtol>0.001</dtol>
			<etol>0.01</etol>
			<rtol>0</rtol>
			<ptol>0.01</ptol>
			<lstol>0.9</lstol>
			<min_residual>1e-20</min_residual>
			<qnmethod>BFGS</qnmethod>
			<mixed_formulation>default</mixed_formulation>
			<symmetric_stiffness>0</symmetric_stiffness>
		</solver>
		<time_stepper>
			<dtmin>0.01</dtmin>
			<dtmax lc="1"></dtmax>
			<max_retries>20</max_retries>
			<opt_iter>10</opt_iter>
		</time_stepper>
	</Control>
	<Globals>
		<Constants>
			<T>0</T>
			<R>0</R>
			<Fc>0</Fc>
		</Constants>
	</Globals>
	<Material>
		<material id="1" name="Indenter" type="rigid body">
			<density>1</density>
			<center_of_mass>0,0,0</center_of_mass>
		</material>
		<material id="2" name="Sample" type="biphasic">
			<phi0>0.2</phi0>
			<fluid_density>1</fluid_density>
			<tau>0</tau>
			<solid type="viscoelastic">
				<density>1</density>
				<g1>1.8</g1>
				<g2>0</g2>
				<g3>0</g3>
				<g4>0</g4>
				<g5>0</g5>
				<g6>0</g6>
				<t1>100</t1>
				<t2>1</t2>
				<t3>1</t3>
				<t4>1</t4>
				<t5>1</t5>
				<t6>1</t6>
				<elastic type="solid mixture">
					<density>1</density>
					<solid type="neo-Hookean">
						<E>0.5</E>
						<v>0.2</v>
					</solid>
					<solid type="continuous fiber distribution">
						<density>0</density>
						<mat_axis type="angles">
							<theta>0</theta>
							<phi>90</phi>
						</mat_axis>
						<fibers type="fiber-exp-pow">
							<alpha>1.2</alpha>
							<beta>2</beta>
							<ksi>0.1</ksi>
							<mu>0</mu>
						</fibers>
						<distribution type="von-Mises-3d">
							<b>1.49</b>
						</distribution>
						<scheme type="fibers-3d-fei">
							<resolution>196</resolution>
						</scheme>
					</solid>
				</elastic>
			</solid>
			<permeability type="perm-const-iso">
				<perm>0.14</perm>
			</permeability>
		</material>
	</Material>
	<Mesh>
		<Nodes name="Object01">
			<node id="1">0,0,-3.3</node>
			<node id="2">0.13333,0,-3.3</node>
			<node id="3">0.26667,0,-3.3</node>
			<node id="4">0.4,0,-3.3</node>
			<node id="5">0.53333,0,-3.3</node>
			<node id="6">0.66667,0,-3.3</node>
			<node id="7">0.8,0,-3.3</node>
			<node id="8">0.93333,0,-3.3</node>
			<node id="9">1.0667,0,-3.3</node>
			<node id="10">1.2,0,-3.3</node>
			<node id="11">1.3333,0,-3.3</node>
			<node id="12">1.4667,0,-3.3</node>
			<node id="13">1.6,0,-3.3</node>
			<node id="14">1.7333,0,-3.3</node>
			<node id="15">1.8667,0,-3.3</node>
			<node id="16">2,0,-3.3</node>
			<node id="17">2.4,0,-3.3</node>
			<node id="18">2.8,0,-3.3</node>
			<node id="19">3.2,0,-3.3</node>
			<node id="20">3.6,0,-3.3</node>
<!-- ... 5766 like lines cut -->
		</Nodes>
		<Elements type="hex8" name="solid_mixture">
			<elem id="1">     1,     2,    23,    22,   358,   359,   380,   379</elem>
			<elem id="2">     2,     3,    24,    23,   359,   360,   381,   380</elem>
			<elem id="3">     3,     4,    25,    24,   360,   361,   382,   381</elem>
			<elem id="4">     4,     5,    26,    25,   361,   362,   383,   382</elem>
			<elem id="5">     5,     6,    27,    26,   362,   363,   384,   383</elem>
			<elem id="6">     6,     7,    28,    27,   363,   364,   385,   384</elem>
			<elem id="7">     7,     8,    29,    28,   364,   365,   386,   385</elem>
			<elem id="8">     8,     9,    30,    29,   365,   366,   387,   386</elem>
			<elem id="9">     9,    10,    31,    30,   366,   367,   388,   387</elem>
			<elem id="10">    10,    11,    32,    31,   367,   368,   389,   388</elem>
			<elem id="11">    11,    12,    33,    32,   368,   369,   390,   389</elem>
			<elem id="12">    12,    13,    34,    33,   369,   370,   391,   390</elem>
			<elem id="13">    13,    14,    35,    34,   370,   371,   392,   391</elem>
			<elem id="14">    14,    15,    36,    35,   371,   372,   393,   392</elem>
			<elem id="15">    15,    16,    37,    36,   372,   373,   394,   393</elem>
			<elem id="16">    16,    17,    38,    37,   373,   374,   395,   394</elem>
			<elem id="17">    17,    18,    39,    38,   374,   375,   396,   395</elem>
			<elem id="18">    18,    19,    40,    39,   375,   376,   397,   396</elem>
			<elem id="19">    19,    20,    41,    40,   376,   377,   398,   397</elem>
			<elem id="20">    20,    21,    42,    41,   377,   378,   399,   398</elem>
<!-- ... 4780 like lines cut -->
		</Elements>
		<Elements type="hex8" name="indenter">
			<elem id="4801">  5713,  5717,  5718,  5714,  5750,  5754,  5755,  5751</elem>
			<elem id="4802">  5714,  5718,  5719,  5715,  5751,  5755,  5756,  5752</elem>
			<elem id="4803">  5715,  5719,  5720,  5716,  5752,  5756,  5757,  5753</elem>
			<elem id="4804">  5716,  5720,  5738,  5737,  5753,  5757,  5775,  5774</elem>
			<elem id="4805">  5717,  5721,  5722,  5718,  5754,  5758,  5759,  5755</elem>
			<elem id="4806">  5718,  5722,  5723,  5719,  5755,  5759,  5760,  5756</elem>
			<elem id="4807">  5719,  5723,  5724,  5720,  5756,  5760,  5761,  5757</elem>
			<elem id="4808">  5720,  5724,  5739,  5738,  5757,  5761,  5776,  5775</elem>
			<elem id="4809">  5721,  5725,  5726,  5722,  5758,  5762,  5763,  5759</elem>
			<elem id="4810">  5722,  5726,  5727,  5723,  5759,  5763,  5764,  5760</elem>
			<elem id="4811">  5723,  5727,  5728,  5724,  5760,  5764,  5765,  5761</elem>
			<elem id="4812">  5724,  5728,  5740,  5739,  5761,  5765,  5777,  5776</elem>
			<elem id="4813">  5725,  5743,  5746,  5726,  5762,  5780,  5783,  5763</elem>
			<elem id="4814">  5726,  5746,  5749,  5727,  5763,  5783,  5786,  5764</elem>
			<elem id="4815">  5727,  5749,  5740,  5728,  5764,  5786,  5777,  5765</elem>
			<elem id="4816">  5729,  5733,  5734,  5730,  5766,  5770,  5771,  5767</elem>
			<elem id="4817">  5730,  5734,  5735,  5731,  5767,  5771,  5772,  5768</elem>
			<elem id="4818">  5731,  5735,  5736,  5732,  5768,  5772,  5773,  5769</elem>
			<elem id="4819">  5732,  5736,  5748,  5747,  5769,  5773,  5785,  5784</elem>
			<elem id="4820">  5733,  5737,  5738,  5734,  5770,  5774,  5775,  5771</elem>
<!-- ... 7 like lines cut -->
		</Elements>
		<NodeSet name="FixedSide_x">
			<n id="1"/>
			<n id="22"/>
			<n id="43"/>
			<n id="64"/>
			<n id="85"/>
			<n id="106"/>
			<n id="127"/>
			<n id="148"/>
			<n id="169"/>
			<n id="190"/>
			<n id="211"/>
			<n id="232"/>
			<n id="253"/>
			<n id="274"/>
			<n id="295"/>
			<n id="316"/>
			<n id="337"/>
			<n id="358"/>
			<n id="379"/>
			<n id="400"/>
<!-- ... 252 like lines cut -->
		</NodeSet>
		<NodeSet name="FixedSide_y">
			<n id="1"/>
			<n id="2"/>
			<n id="3"/>
			<n id="4"/>
			<n id="5"/>
			<n id="6"/>
			<n id="7"/>
			<n id="8"/>
			<n id="9"/>
			<n id="10"/>
			<n id="11"/>
			<n id="12"/>
			<n id="13"/>
			<n id="14"/>
			<n id="15"/>
			<n id="16"/>
			<n id="17"/>
			<n id="18"/>
			<n id="19"/>
			<n id="20"/>
<!-- ... 316 like lines cut -->
		</NodeSet>
		<NodeSet name="FixedBottom_z">
			<n id="1"/>
			<n id="2"/>
			<n id="3"/>
			<n id="4"/>
			<n id="5"/>
			<n id="6"/>
			<n id="7"/>
			<n id="8"/>
			<n id="9"/>
			<n id="10"/>
			<n id="11"/>
			<n id="12"/>
			<n id="13"/>
			<n id="14"/>
			<n id="15"/>
			<n id="16"/>
			<n id="17"/>
			<n id="18"/>
			<n id="19"/>
			<n id="20"/>
<!-- ... 337 like lines cut -->
		</NodeSet>
		<NodeSet name="FixedSide_p">
			<n id="21"/>
			<n id="42"/>
			<n id="63"/>
			<n id="84"/>
			<n id="105"/>
			<n id="126"/>
			<n id="147"/>
			<n id="168"/>
			<n id="189"/>
			<n id="210"/>
			<n id="231"/>
			<n id="252"/>
			<n id="273"/>
			<n id="294"/>
			<n id="315"/>
			<n id="336"/>
			<n id="337"/>
			<n id="338"/>
			<n id="339"/>
			<n id="340"/>
<!-- ... 572 like lines cut -->
		</NodeSet>
		<NodeSet name="nodeset01">
			<n id="5713"/>
		</NodeSet>
		<NodeSet name="nodeset01">
			<n id="5713"/>
		</NodeSet>
		<Surface name="Secondary">
			<quad4 id="1">  5356,  5357,  5378,  5377</quad4>
			<quad4 id="2">  5357,  5358,  5379,  5378</quad4>
			<quad4 id="3">  5358,  5359,  5380,  5379</quad4>
			<quad4 id="4">  5359,  5360,  5381,  5380</quad4>
			<quad4 id="5">  5360,  5361,  5382,  5381</quad4>
			<quad4 id="6">  5361,  5362,  5383,  5382</quad4>
			<quad4 id="7">  5362,  5363,  5384,  5383</quad4>
			<quad4 id="8">  5363,  5364,  5385,  5384</quad4>
			<quad4 id="9">  5364,  5365,  5386,  5385</quad4>
			<quad4 id="10">  5365,  5366,  5387,  5386</quad4>
			<quad4 id="11">  5366,  5367,  5388,  5387</quad4>
			<quad4 id="12">  5367,  5368,  5389,  5388</quad4>
			<quad4 id="13">  5368,  5369,  5390,  5389</quad4>
			<quad4 id="14">  5369,  5370,  5391,  5390</quad4>
			<quad4 id="15">  5370,  5371,  5392,  5391</quad4>
			<quad4 id="16">  5371,  5372,  5393,  5392</quad4>
			<quad4 id="17">  5372,  5373,  5394,  5393</quad4>
			<quad4 id="18">  5373,  5374,  5395,  5394</quad4>
			<quad4 id="19">  5374,  5375,  5396,  5395</quad4>
			<quad4 id="20">  5375,  5376,  5397,  5396</quad4>
<!-- ... 300 like lines cut -->
		</Surface>
		<Surface name="Primary">
			<quad4 id="1">  5714,  5718,  5717,  5713</quad4>
			<quad4 id="2">  5715,  5719,  5718,  5714</quad4>
			<quad4 id="3">  5716,  5720,  5719,  5715</quad4>
			<quad4 id="4">  5737,  5738,  5720,  5716</quad4>
			<quad4 id="5">  5718,  5722,  5721,  5717</quad4>
			<quad4 id="6">  5719,  5723,  5722,  5718</quad4>
			<quad4 id="7">  5720,  5724,  5723,  5719</quad4>
			<quad4 id="8">  5738,  5739,  5724,  5720</quad4>
			<quad4 id="9">  5722,  5726,  5725,  5721</quad4>
			<quad4 id="10">  5723,  5727,  5726,  5722</quad4>
			<quad4 id="11">  5724,  5728,  5727,  5723</quad4>
			<quad4 id="12">  5739,  5740,  5728,  5724</quad4>
			<quad4 id="13">  5726,  5746,  5743,  5725</quad4>
			<quad4 id="14">  5727,  5749,  5746,  5726</quad4>
			<quad4 id="15">  5728,  5740,  5749,  5727</quad4>
			<quad4 id="16">  5730,  5734,  5733,  5729</quad4>
			<quad4 id="17">  5731,  5735,  5734,  5730</quad4>
			<quad4 id="18">  5732,  5736,  5735,  5731</quad4>
			<quad4 id="19">  5747,  5748,  5736,  5732</quad4>
			<quad4 id="20">  5734,  5738,  5737,  5733</quad4>
<!-- ... 7 like lines cut -->
		</Surface>
		<SurfacePair name="SEContact">
			<primary>Secondary</primary>
			<secondary>Primary</secondary>
		</SurfacePair>
	</Mesh>
	<MeshDomains>
		<SolidDomain name="solid_mixture" mat="Sample"/>
		<SolidDomain name="indenter" mat="Indenter"/>
	</MeshDomains>
	<Boundary>
		<bc name="FixedDisplacementX" type="fix" node_set="FixedSide_x">
			<dofs>x</dofs>
		</bc>
		<bc name="FixedDisplacementY" type="fix" node_set="FixedSide_y">
			<dofs>y</dofs>
		</bc>
		<bc name="FixedDisplacementZ" type="fix" node_set="FixedBottom_z">
			<dofs>z</dofs>
		</bc>
		<bc name="FixedEffectiveFluidPressure" type="fix" node_set="FixedSide_p">
			<dofs>p</dofs>
		</bc>
	</Boundary>
	<Rigid>
		<rigid_constraint name="RigidFixed01" type="fix">
			<rb>1</rb>
			<dofs>Rx,Ry,Ru,Rv,Rw</dofs>
		</rigid_constraint>
		<rigid_constraint name="RigidDipsZ01" type="prescribe">
			<rb>1</rb>
			<dof>Rz</dof>
			<value lc="2">-1.485</value>
			<relative>0</relative>
		</rigid_constraint>
	</Rigid>
	<Contact>
		<contact type="sliding-biphasic" name="SEContact" surface_pair="SEContact">
			<laugon>1</laugon>
			<tolerance>0.2</tolerance>
			<gaptol>0</gaptol>
			<ptol>0</ptol>
			<penalty>100</penalty>
			<two_pass>0</two_pass>
			<auto_penalty>1</auto_penalty>
			<pressure_penalty>1</pressure_penalty>
			<symmetric_stiffness>0</symmetric_stiffness>
			<search_radius>0.1</search_radius>
			<seg_up>0</seg_up>
			<minaug>0</minaug>
			<maxaug>10</maxaug>
			<search_tol>0.01</search_tol>
			<update_penalty>0</update_penalty>
			<smooth_aug>0</smooth_aug>
			<fric_coeff>0</fric_coeff>
			<contact_frac>0</contact_frac>
			<smooth_fls>0</smooth_fls>
			<knmult>1</knmult>
			<node_reloc>0</node_reloc>
			<flip_primary>0</flip_primary>
			<flip_secondary>0</flip_secondary>
			<shell_bottom_primary>0</shell_bottom_primary>
			<shell_bottom_secondary>0</shell_bottom_secondary>
		</contact>
	</Contact>
	<LoadData>
		<load_controller id="1" type="loadcurve">
			<interpolate>STEP</interpolate>
			<points>
				<point>0,0</point>
				<point>15,1</point>
				<point>255,50</point>
				<point>270,1</point>
				<point>690,50</point>
				<point>705,1</point>
				<point>1425,50</point>
			</points>
		</load_controller>
		<load_controller id="2" type="loadcurve">
			<interpolate>LINEAR</interpolate>
			<points>
				<point>0,0</point>
				<point>15,0.33</point>
				<point>255,0.33</point>
				<point>270,0.67</point>
				<point>690,0.67</point>
				<point>705,1</point>
				<point>1425,1</point>
			</points>
		</load_controller>
	</LoadData>
	<Output>
		<plotfile type="febio">
			<var type="displacement"/>
			<var type="reaction forces"/>
			<var type="rigid force"/>
			<var type="stress"/>
			<var type="effective fluid pressure"/>
			<var type="fluid pressure"/>
			<var type="fluid flux"/>
		</plotfile>
		<logfile>
			<node_data data="ux;uy;uz" file="disp.txt" node_set="nodeset01"/>
			<rigid_body_data data="Fx;Fy;Fz"/>
		</logfile>
	</Output>
</febio_spec>
