<?xml version="1.0" encoding="utf-8"?>
<febio_spec version="3.0">
   <Module type="biphasic"/>
   <Control>
      <analysis>TRANSIENT</analysis>
      <time_steps>1425</time_steps>
      <step_size>1.0</step_size>
      <solver>
         <max_refs>25</max_refs>
         <max_ups>10</max_ups>
         <diverge_reform>1</diverge_reform>
         <reform_each_time_step>1</reform_each_time_step>
         <dtol>0.001</dtol>
         <etol>0.01</etol>
         <rtol>0</rtol>
         <lstol>0.9</lstol>
         <min_residual>1e-20</min_residual>
         <qnmethod>BFGS</qnmethod>
         <rhoi>-2</rhoi>
         <symmetric_stiffness>0</symmetric_stiffness>
      </solver>
      <time_stepper>
         <dtmin>0.01</dtmin>
         <dtmax lc="1"/>
         <max_retries>20</max_retries>
         <opt_iter>10</opt_iter>
      </time_stepper>
   </Control>
   <Globals>
      <Constants>
         <T>0</T>
         <R>0</R>
         <Fc>0</Fc>
      </Constants>
   </Globals>
   <Material>
      <material id="1" name="Indenter" type="rigid body">
         <density>1</density>
         <center_of_mass>0,0,0</center_of_mass>
      </material>
      <material id="2" name="Sample" type="biphasic">
         <phi0>0.2</phi0>
         <fluid_density>1</fluid_density>
         <permeability type="perm-const-iso">
            <perm>0.14</perm>
         </permeability>
         <solid type="viscoelastic">
            <g1>1.8</g1>
            <t1>100.0</t1>
            <elastic type="solid mixture">
               <solid type="neo-Hookean">
                  <density>1</density>
                  <E>0.5</E>
                  <v>0.2</v>
               </solid>
               <solid type="continuous fiber distribution">
                  <density>0</density>
                  <fibers type="fiber-exp-pow">
                     <alpha>1.2</alpha>
                     <beta>2</beta>
                     <ksi>0.1</ksi>
                  </fibers>
                  <mat_axis type="angles">
                     <theta>0.0</theta>
                     <phi>90.0</phi>
                  </mat_axis>
                  <distribution type="von-Mises-3d">
                     <b>0.72</b>
                  </distribution>
                  <scheme type="fibers-3d-fei">
                     <resolution>196</resolution>
                  </scheme>
               </solid>
            </elastic>
         </solid>
      </material>
   </Material>
   <Mesh>
      <Nodes>
         <node id="1">0,0,-2.1</node>
         <node id="2">0.4,0,-2.1</node>
         <node id="3">0.8,0,-2.1</node>
         <node id="4">1.2,0,-2.1</node>
         <node id="5">1.6,0,-2.1</node>
         <node id="6">2,0,-2.1</node>
         <node id="7">2.4,0,-2.1</node>
         <node id="8">2.8,0,-2.1</node>
         <node id="9">3.2,0,-2.1</node>
         <node id="10">3.75,0,-2.1</node>
         <node id="11">0,0.4,-2.1</node>
         <node id="12">0.4,0.4,-2.1</node>
         <node id="13">0.8,0.4,-2.1</node>
         <node id="14">1.2,0.4,-2.1</node>
         <node id="15">1.6,0.4,-2.1</node>
         <node id="16">2,0.4,-2.1</node>
         <node id="17">2.4,0.4,-2.1</node>
         <node id="18">2.8,0.4,-2.1</node>
         <node id="19">3.2,0.4,-2.1</node>
         <node id="20">3.75,0.4,-2.1</node>
<!-- ... 714 like lines cut -->
      </Nodes>
      <Elements mat="2" name="solid_mixture" type="hex8">
         <elem id="1"> 1, 2, 12, 11, 111, 112, 122, 121</elem>
         <elem id="2"> 2, 3, 13, 12, 112, 113, 123, 122</elem>
         <elem id="3"> 3, 4, 14, 13, 113, 114, 124, 123</elem>
         <elem id="4"> 4, 5, 15, 14, 114, 115, 125, 124</elem>
         <elem id="5"> 5, 6, 16, 15, 115, 116, 126, 125</elem>
         <elem id="6"> 6, 7, 17, 16, 116, 117, 127, 126</elem>
         <elem id="7"> 7, 8, 18, 17, 117, 118, 128, 127</elem>
         <elem id="8"> 8, 9, 19, 18, 118, 119, 129, 128</elem>
         <elem id="9"> 9, 10, 20, 19, 119, 120, 130, 129</elem>
         <elem id="10"> 11, 12, 22, 21, 121, 122, 132, 131</elem>
         <elem id="11"> 12, 13, 23, 22, 122, 123, 133, 132</elem>
         <elem id="12"> 13, 14, 24, 23, 123, 124, 134, 133</elem>
         <elem id="13"> 14, 15, 25, 24, 124, 125, 135, 134</elem>
         <elem id="14"> 15, 16, 26, 25, 125, 126, 136, 135</elem>
         <elem id="15"> 16, 17, 27, 26, 126, 127, 137, 136</elem>
         <elem id="16"> 17, 18, 28, 27, 127, 128, 138, 137</elem>
         <elem id="17"> 18, 19, 29, 28, 128, 129, 139, 138</elem>
         <elem id="18"> 19, 20, 30, 29, 129, 130, 140, 139</elem>
         <elem id="19"> 21, 22, 32, 31, 131, 132, 142, 141</elem>
         <elem id="20"> 22, 23, 33, 32, 132, 133, 143, 142</elem>
<!-- ... 430 like lines cut -->
      </Elements>
      <Elements mat="1" name="indenter" type="hex8">
         <elem id="451"> 661, 665, 666, 662, 698, 702, 703, 699</elem>
         <elem id="452"> 662, 666, 667, 663, 699, 703, 704, 700</elem>
         <elem id="453"> 663, 667, 668, 664, 700, 704, 705, 701</elem>
         <elem id="454"> 664, 668, 686, 685, 701, 705, 723, 722</elem>
         <elem id="455"> 665, 669, 670, 666, 702, 706, 707, 703</elem>
         <elem id="456"> 666, 670, 671, 667, 703, 707, 708, 704</elem>
         <elem id="457"> 667, 671, 672, 668, 704, 708, 709, 705</elem>
         <elem id="458"> 668, 672, 687, 686, 705, 709, 724, 723</elem>
         <elem id="459"> 669, 673, 674, 670, 706, 710, 711, 707</elem>
         <elem id="460"> 670, 674, 675, 671, 707, 711, 712, 708</elem>
         <elem id="461"> 671, 675, 676, 672, 708, 712, 713, 709</elem>
         <elem id="462"> 672, 676, 688, 687, 709, 713, 725, 724</elem>
         <elem id="463"> 673, 691, 694, 674, 710, 728, 731, 711</elem>
         <elem id="464"> 674, 694, 697, 675, 711, 731, 734, 712</elem>
         <elem id="465"> 675, 697, 688, 676, 712, 734, 725, 713</elem>
         <elem id="466"> 677, 681, 682, 678, 714, 718, 719, 715</elem>
         <elem id="467"> 678, 682, 683, 679, 715, 719, 720, 716</elem>
         <elem id="468"> 679, 683, 684, 680, 716, 720, 721, 717</elem>
         <elem id="469"> 680, 684, 696, 695, 717, 721, 733, 732</elem>
         <elem id="470"> 681, 685, 686, 682, 718, 722, 723, 719</elem>
<!-- ... 7 like lines cut -->
      </Elements>
      <NodeSet name="FixedBottom_z">
         <node id="1"/>
         <node id="2"/>
         <node id="3"/>
         <node id="4"/>
         <node id="5"/>
         <node id="6"/>
         <node id="7"/>
         <node id="8"/>
         <node id="9"/>
         <node id="10"/>
         <node id="11"/>
         <node id="12"/>
         <node id="13"/>
         <node id="14"/>
         <node id="15"/>
         <node id="16"/>
         <node id="17"/>
         <node id="18"/>
         <node id="19"/>
         <node id="20"/>
<!-- ... 90 like lines cut -->
      </NodeSet>
      <NodeSet name="FixedSide_x">
         <node id="1"/>
         <node id="11"/>
         <node id="21"/>
         <node id="31"/>
         <node id="41"/>
         <node id="51"/>
         <node id="61"/>
         <node id="71"/>
         <node id="81"/>
         <node id="91"/>
         <node id="101"/>
         <node id="111"/>
         <node id="121"/>
         <node id="131"/>
         <node id="141"/>
         <node id="151"/>
         <node id="161"/>
         <node id="171"/>
         <node id="181"/>
         <node id="191"/>
<!-- ... 46 like lines cut -->
      </NodeSet>
      <NodeSet name="FixedSide_y">
         <node id="1"/>
         <node id="2"/>
         <node id="3"/>
         <node id="4"/>
         <node id="5"/>
         <node id="6"/>
         <node id="7"/>
         <node id="8"/>
         <node id="9"/>
         <node id="10"/>
         <node id="111"/>
         <node id="112"/>
         <node id="113"/>
         <node id="114"/>
         <node id="115"/>
         <node id="116"/>
         <node id="117"/>
         <node id="118"/>
         <node id="119"/>
         <node id="120"/>
<!-- ... 40 like lines cut -->
      </NodeSet>
      <NodeSet name="FixedSide_p">
         <node id="10"/>
         <node id="20"/>
         <node id="30"/>
         <node id="40"/>
         <node id="50"/>
         <node id="60"/>
         <node id="70"/>
         <node id="80"/>
         <node id="90"/>
         <node id="100"/>
         <node id="101"/>
         <node id="102"/>
         <node id="103"/>
         <node id="104"/>
         <node id="105"/>
         <node id="106"/>
         <node id="107"/>
         <node id="108"/>
         <node id="109"/>
         <node id="110"/>
<!-- ... 100 like lines cut -->
      </NodeSet>
      <Surface name="Primary">
         <quad4 id="1"> 661, 662, 666, 665</quad4>
         <quad4 id="2"> 662, 663, 667, 666</quad4>
         <quad4 id="3"> 663, 664, 668, 667</quad4>
         <quad4 id="4"> 664, 685, 686, 668</quad4>
         <quad4 id="5"> 665, 666, 670, 669</quad4>
         <quad4 id="6"> 666, 667, 671, 670</quad4>
         <quad4 id="7"> 667, 668, 672, 671</quad4>
         <quad4 id="8"> 668, 686, 687, 672</quad4>
         <quad4 id="9"> 669, 670, 674, 673</quad4>
         <quad4 id="10"> 670, 671, 675, 674</quad4>
         <quad4 id="11"> 671, 672, 676, 675</quad4>
         <quad4 id="12"> 672, 687, 688, 676</quad4>
         <quad4 id="13"> 673, 674, 694, 691</quad4>
         <quad4 id="14"> 674, 675, 697, 694</quad4>
         <quad4 id="15"> 675, 676, 688, 697</quad4>
         <quad4 id="16"> 677, 678, 682, 681</quad4>
         <quad4 id="17"> 678, 679, 683, 682</quad4>
         <quad4 id="18"> 679, 680, 684, 683</quad4>
         <quad4 id="19"> 680, 695, 696, 684</quad4>
         <quad4 id="20"> 681, 682, 686, 685</quad4>
<!-- ... 7 like lines cut -->
      </Surface>
      <Surface name="Secondary">
         <quad4 id="1"> 551, 552, 562, 561</quad4>
         <quad4 id="2"> 552, 553, 563, 562</quad4>
         <quad4 id="3"> 553, 554, 564, 563</quad4>
         <quad4 id="4"> 554, 555, 565, 564</quad4>
         <quad4 id="5"> 555, 556, 566, 565</quad4>
         <quad4 id="6"> 556, 557, 567, 566</quad4>
         <quad4 id="7"> 557, 558, 568, 567</quad4>
         <quad4 id="8"> 558, 559, 569, 568</quad4>
         <quad4 id="9"> 559, 560, 570, 569</quad4>
         <quad4 id="10"> 561, 562, 572, 571</quad4>
         <quad4 id="11"> 562, 563, 573, 572</quad4>
         <quad4 id="12"> 563, 564, 574, 573</quad4>
         <quad4 id="13"> 564, 565, 575, 574</quad4>
         <quad4 id="14"> 565, 566, 576, 575</quad4>
         <quad4 id="15"> 566, 567, 577, 576</quad4>
         <quad4 id="16"> 567, 568, 578, 577</quad4>
         <quad4 id="17"> 568, 569, 579, 578</quad4>
         <quad4 id="18"> 569, 570, 580, 579</quad4>
         <quad4 id="19"> 571, 572, 582, 581</quad4>
         <quad4 id="20"> 572, 573, 583, 582</quad4>
<!-- ... 70 like lines cut -->
      </Surface>
      <SurfacePair name="Sliding_Elastic_Contact">
         <primary>Secondary</primary>
         <secondary>Primary</secondary>
      </SurfacePair>
   </Mesh>
   <MeshDomains>
      <SolidDomain mat="Indenter" name="indenter"/>
      <SolidDomain mat="Sample" name="solid_mixture"/>
   </MeshDomains>
   <Boundary>
      <bc name="FixedDisplacementX" node_set="FixedSide_x" type="fix">
         <dofs>x</dofs>
      </bc>
      <bc name="FixedDisplacementY" node_set="FixedSide_y" type="fix">
         <dofs>y</dofs>
      </bc>
      <bc name="FixedDisplacementZ" node_set="FixedBottom_z" type="fix">
         <dofs>z</dofs>
      </bc>
      <bc name="FixedEffectiveFluidPressure" node_set="FixedSide_p" type="fix">
         <dofs>p</dofs>
      </bc>
   </Boundary>
   <Rigid>
      <rigid_constraint name="RigidFixed01" type="fix">
         <rb>1</rb>
         <dofs>Rx,Ry,Ru,Rv,Rw</dofs>
      </rigid_constraint>
      <rigid_constraint name="RigidDipsZ01" type="prescribe">
         <rb>1</rb>
         <dof>Rz</dof>
         <value lc="2">-0.945</value>
         <relative>0</relative>
      </rigid_constraint>
   </Rigid>
   <Contact>
      <contact name="SEContact" surface_pair="Sliding_Elastic_Contact" type="sliding-biphasic">
         <laugon>1</laugon>
         <tolerance>0.2</tolerance>
         <gaptol>0</gaptol>
         <penalty>100</penalty>
         <pressure_penalty>1.0</pressure_penalty>
         <auto_penalty>1</auto_penalty>
         <search_tol>0.01</search_tol>
         <symmetric_stiffness>0</symmetric_stiffness>
         <search_radius>0.1</search_radius>
         <seg_up>0</seg_up>
         <minaug>0</minaug>
         <maxaug>10</maxaug>
      </contact>
   </Contact>
   <LoadData>
      <load_controller id="1" type="loadcurve">
         <interpolate>STEP</interpolate>
         <points>
            <point>0,0</point>
            <point>15,1</point>
            <point>255,50</point>
            <point>270,1</point>
            <point>690,50</point>
            <point>705,1</point>
            <point>1425,50</point>
         </points>
      </load_controller>
      <load_controller id="2" type="loadcurve">
         <interpolate>LINEAR</interpolate>
         <points>
            <point>0,0</point>
            <point>15,0.33</point>
            <point>255,0.33</point>
            <point>270,0.67</point>
            <point>690,0.67</point>
            <point>705,1.0</point>
            <point>1425,1.0</point>
         </points>
      </load_controller>
   </LoadData>
   <Output>
      <plotfile type="febio">
         <var type="displacement"/>
         <var type="stress"/>
         <var type="rigid force"/>
         <var type="reaction forces"/>
         <var type="effective fluid pressure"/>
         <var type="fluid pressure"/>
         <var type="fluid flux"/>
      </plotfile>
      <logfile>
         <node_data data="ux;uy;uz" file="disp.txt">661</node_data>
         <rigid_body_data data="Fx;Fy;Fz" file="force.txt">1</rigid_body_data>
      </logfile>
   </Output>
</febio_spec>