<?xml version="1.0" encoding="utf-8"?>
<febio_spec version="3.0">
   <Module type="solid"/>
   <Control>
      <analysis>STATIC</analysis>
      <time_steps>10</time_steps>
      <step_size>0.1</step_size>
      <solver>
         <max_refs>25</max_refs>
         <max_ups>10</max_ups>
         <diverge_reform>1</diverge_reform>
         <reform_each_time_step>1</reform_each_time_step>
         <dtol>0.001</dtol>
         <etol>0.01</etol>
         <rtol>0</rtol>
         <lstol>0.9</lstol>
         <min_residual>1e-20</min_residual>
         <qnmethod>BFGS</qnmethod>
         <symmetric_stiffness>0</symmetric_stiffness>
      </solver>
      <time_stepper>
         <dtmin>0.01</dtmin>
         <dtmax lc="2"/>
         <max_retries>20</max_retries>
         <opt_iter>10</opt_iter>
      </time_stepper>
   </Control>
   <Globals>
      <Constants>
         <T>0</T>
         <R>0</R>
         <Fc>0</Fc>
      </Constants>
   </Globals>
   <Material>
      <material id="1" name="Top_grip" type="rigid body">
         <density>1</density>
         <center_of_mass>0,0,0</center_of_mass>
      </material>
      <material id="2" name="Sample" type="solid mixture">
         <solid type="neo-Hookean">
            <density>1</density>
            <E>0.5</E>
            <v>0.2</v>
         </solid>
         <solid type="continuous fiber distribution">
            <density>0</density>
            <fibers type="fiber-exp-pow">
               <alpha>1.2</alpha>
               <beta>5.0</beta>
               <ksi>0.1</ksi>
            </fibers>
            <mat_axis type="angles">
               <theta>0.0</theta>
               <phi>90.0</phi>
            </mat_axis>
            <distribution type="von-Mises-3d">
               <b>1.49</b>
            </distribution>
            <scheme type="fibers-3d-fei">
               <resolution>196</resolution>
            </scheme>
         </solid>
      </material>
   </Material>
   <Mesh>
      <Nodes>
         <node id="1">0,0,-2.5</node>
         <node id="2">0.4,0,-2.5</node>
         <node id="3">0.8,0,-2.5</node>
         <node id="4">1.2,0,-2.5</node>
         <node id="5">1.6,0,-2.5</node>
         <node id="6">2,0,-2.5</node>
         <node id="7">2.4,0,-2.5</node>
         <node id="8">2.8,0,-2.5</node>
         <node id="9">3.18,0,-2.5</node>
         <node id="10">0,0.4,-2.5</node>
         <node id="11">0.4,0.4,-2.5</node>
         <node id="12">0.8,0.4,-2.5</node>
         <node id="13">1.2,0.4,-2.5</node>
         <node id="14">1.6,0.4,-2.5</node>
         <node id="15">2,0.4,-2.5</node>
         <node id="16">2.4,0.4,-2.5</node>
         <node id="17">2.8,0.4,-2.5</node>
         <node id="18">3.18,0.4,-2.5</node>
         <node id="19">0,0.8,-2.5</node>
         <node id="20">0.4,0.8,-2.5</node>
<!-- ... 807 like lines cut -->
      </Nodes>
      <Elements mat="2" name="solid_mixture" type="hex8">
         <elem id="1"> 1, 2, 11, 10, 118, 119, 128, 127</elem>
         <elem id="2"> 2, 3, 12, 11, 119, 120, 129, 128</elem>
         <elem id="3"> 3, 4, 13, 12, 120, 121, 130, 129</elem>
         <elem id="4"> 4, 5, 14, 13, 121, 122, 131, 130</elem>
         <elem id="5"> 5, 6, 15, 14, 122, 123, 132, 131</elem>
         <elem id="6"> 6, 7, 16, 15, 123, 124, 133, 132</elem>
         <elem id="7"> 7, 8, 17, 16, 124, 125, 134, 133</elem>
         <elem id="8"> 8, 9, 18, 17, 125, 126, 135, 134</elem>
         <elem id="9"> 10, 11, 20, 19, 127, 128, 137, 136</elem>
         <elem id="10"> 11, 12, 21, 20, 128, 129, 138, 137</elem>
         <elem id="11"> 12, 13, 22, 21, 129, 130, 139, 138</elem>
         <elem id="12"> 13, 14, 23, 22, 130, 131, 140, 139</elem>
         <elem id="13"> 14, 15, 24, 23, 131, 132, 141, 140</elem>
         <elem id="14"> 15, 16, 25, 24, 132, 133, 142, 141</elem>
         <elem id="15"> 16, 17, 26, 25, 133, 134, 143, 142</elem>
         <elem id="16"> 17, 18, 27, 26, 134, 135, 144, 143</elem>
         <elem id="17"> 19, 20, 29, 28, 136, 137, 146, 145</elem>
         <elem id="18"> 20, 21, 30, 29, 137, 138, 147, 146</elem>
         <elem id="19"> 21, 22, 31, 30, 138, 139, 148, 147</elem>
         <elem id="20"> 22, 23, 32, 31, 139, 140, 149, 148</elem>
<!-- ... 556 like lines cut -->
      </Elements>
      <Elements mat="1" name="top_grip" type="hex8">
         <elem id="577"> 820, 821, 823, 822, 824, 825, 827, 826</elem>
      </Elements>
      <NodeSet name="FixedBottom">
         <node id="1"/>
         <node id="2"/>
         <node id="3"/>
         <node id="4"/>
         <node id="5"/>
         <node id="6"/>
         <node id="7"/>
         <node id="8"/>
         <node id="9"/>
         <node id="10"/>
         <node id="11"/>
         <node id="12"/>
         <node id="13"/>
         <node id="14"/>
         <node id="15"/>
         <node id="16"/>
         <node id="17"/>
         <node id="18"/>
         <node id="19"/>
         <node id="20"/>
<!-- ... 97 like lines cut -->
      </NodeSet>
      <Surface name="Master">
         <quad4 id="1"> 820, 822, 823, 821</quad4>
      </Surface>
      <Surface name="Slave">
         <quad4 id="1"> 703, 704, 713, 712</quad4>
         <quad4 id="2"> 704, 705, 714, 713</quad4>
         <quad4 id="3"> 705, 706, 715, 714</quad4>
         <quad4 id="4"> 706, 707, 716, 715</quad4>
         <quad4 id="5"> 707, 708, 717, 716</quad4>
         <quad4 id="6"> 708, 709, 718, 717</quad4>
         <quad4 id="7"> 709, 710, 719, 718</quad4>
         <quad4 id="8"> 710, 711, 720, 719</quad4>
         <quad4 id="9"> 712, 713, 722, 721</quad4>
         <quad4 id="10"> 713, 714, 723, 722</quad4>
         <quad4 id="11"> 714, 715, 724, 723</quad4>
         <quad4 id="12"> 715, 716, 725, 724</quad4>
         <quad4 id="13"> 716, 717, 726, 725</quad4>
         <quad4 id="14"> 717, 718, 727, 726</quad4>
         <quad4 id="15"> 718, 719, 728, 727</quad4>
         <quad4 id="16"> 719, 720, 729, 728</quad4>
         <quad4 id="17"> 721, 722, 731, 730</quad4>
         <quad4 id="18"> 722, 723, 732, 731</quad4>
         <quad4 id="19"> 723, 724, 733, 732</quad4>
         <quad4 id="20"> 724, 725, 734, 733</quad4>
<!-- ... 76 like lines cut -->
      </Surface>
      <SurfacePair name="Tied_Elastic_Contact">
         <primary>Master</primary>
         <secondary>Slave</secondary>
      </SurfacePair>
   </Mesh>
   <MeshDomains>
      <SolidDomain mat="Top_grip" name="top_grip"/>
      <SolidDomain mat="Sample" name="solid_mixture"/>
   </MeshDomains>
   <Boundary>
      <bc name="FixedDisplacement" node_set="FixedBottom" type="fix">
         <dofs>x,y,z</dofs>
      </bc>
   </Boundary>
   <Rigid>
      <rigid_constraint name="RigidFixed01" type="fix">
         <rb>1</rb>
         <dofs>Rx,Ry,Ru,Rv,Rw</dofs>
      </rigid_constraint>
      <rigid_constraint name="RigidDipsZ01" type="prescribe">
         <rb>1</rb>
         <dof>Rz</dof>
         <value lc="1">2.5</value>
         <relative>0</relative>
      </rigid_constraint>
   </Rigid>
   <Contact>
      <contact name="TEContact" surface_pair="Tied_Elastic_Contact" type="tied-elastic">
         <laugon>1</laugon>
         <tolerance>0.2</tolerance>
         <gaptol>0</gaptol>
         <penalty>10</penalty>
         <auto_penalty>1</auto_penalty>
         <two_pass>1</two_pass>
         <search_tol>0.01</search_tol>
         <symmetric_stiffness>0</symmetric_stiffness>
         <search_radius>0.1</search_radius>
         <minaug>0</minaug>
         <maxaug>10</maxaug>
      </contact>
   </Contact>
   <LoadData>
      <load_controller id="1" type="loadcurve">
         <interpolate>SMOOTH</interpolate>
         <points>
            <point>0,0</point>
            <point>1,0.45</point>
         </points>
      </load_controller>
      <load_controller id="2" type="loadcurve">
         <interpolate>STEP</interpolate>
         <points>
            <point>0,0.33</point>
            <point>0.33,0.33</point>
            <point>0.67,0.34</point>
            <point>1,0.33</point>
         </points>
      </load_controller>
   </LoadData>
   <Output>
      <plotfile type="febio">
         <var type="displacement"/>
         <var type="stress"/>
      </plotfile>
      <logfile>
         <node_data data="ux;uy;uz" file="disp.txt">820</node_data>
         <rigid_body_data data="Fx;Fy;Fz" file="force.txt">1</rigid_body_data>
      </logfile>
   </Output>
</febio_spec>