<?xml version="1.0" encoding="ISO-8859-1"?>
<febio_spec version="2.5">
	<Module type="solid"/>
	<Control>
      <time_steps>8</time_steps>
      <step_size>0.125</step_size>
      <max_refs>15</max_refs>
      <max_ups>10</max_ups>
      <diverge_reform>1</diverge_reform>
      <reform_each_time_step>1</reform_each_time_step>
      <dtol>0.001</dtol>
      <etol>0.01</etol>
      <rtol>0</rtol>
      <lstol>0.9</lstol>
      <min_residual>1e-20</min_residual>
      <qnmethod>0</qnmethod>
      <time_stepper>
         <dtmin>0.01</dtmin>
         <dtmax lc="1"/>
         <max_retries>10</max_retries>
         <opt_iter>10</opt_iter>
      </time_stepper>
      <analysis type="static"/>
      <symmetric_stiffness>0</symmetric_stiffness>
	</Control>
	<Globals>
		<Constants>
			<T>0</T>
			<R>0</R>
			<Fc>0</Fc>
		</Constants>
	</Globals>
	<Material>
		<material id="1" name="Material1" type="solid mixture">
         <solid type="ABCompressive3">
			<N>4.0</N>
			<ksi>0.00001</ksi>
			<kappa>1.0</kappa>
         </solid>
         <solid type="continuous fiber distribution">
            <fibers type="FiberEntropyChain2">
				<ksi>1.0</ksi>
				<N>4.0</N>
				<mu>0</mu>
            </fibers>
            <fiber type="angles">
               <theta>-53.63</theta>
               <phi>90</phi>
            </fiber>
            <distribution type="von-Mises-3d">
               <b>0.693</b>
            </distribution>
            <scheme type="fibers-3d-fei">
               <resolution>196</resolution>
            </scheme>
         </solid>
		</material>
		<material id="2" name="Material2" type="rigid body">
			<density>1</density>
			<center_of_mass>0,0,0</center_of_mass>
		</material>
	</Material>
	<Geometry>
		<Nodes name="Object01">
			<node id="1"> -9.6000000e+00, -8.2500000e+00,  0.0000000e+00</node>
			<node id="2"> -9.6000000e+00, -8.2500000e+00,  4.6666667e-01</node>
			<node id="3"> -9.6000000e+00, -8.2500000e+00,  9.3333333e-01</node>
			<node id="4"> -9.6000000e+00, -8.2500000e+00,  1.4000000e+00</node>
			<node id="5"> -9.6000000e+00, -8.2500000e+00,  1.8666667e+00</node>
			<node id="6"> -9.6000000e+00, -8.2500000e+00,  2.3333333e+00</node>
			<node id="7"> -9.6000000e+00, -8.2500000e+00,  2.8000000e+00</node>
			<node id="8"> -9.6000000e+00, -8.2500000e+00,  3.2666667e+00</node>
			<node id="9"> -9.6000000e+00, -8.2500000e+00,  3.7333333e+00</node>
			<node id="10"> -9.6000000e+00, -8.2500000e+00,  4.2000000e+00</node>
			<node id="11"> -9.6000000e+00, -7.7343750e+00,  0.0000000e+00</node>
			<node id="12"> -9.6000000e+00, -7.7343750e+00,  4.6666667e-01</node>
			<node id="13"> -9.6000000e+00, -7.7343750e+00,  9.3333333e-01</node>
			<node id="14"> -9.6000000e+00, -7.7343750e+00,  1.4000000e+00</node>
			<node id="15"> -9.6000000e+00, -7.7343750e+00,  1.8666667e+00</node>
			<node id="16"> -9.6000000e+00, -7.7343750e+00,  2.3333333e+00</node>
			<node id="17"> -9.6000000e+00, -7.7343750e+00,  2.8000000e+00</node>
			<node id="18"> -9.6000000e+00, -7.7343750e+00,  3.2666667e+00</node>
			<node id="19"> -9.6000000e+00, -7.7343750e+00,  3.7333333e+00</node>
			<node id="20"> -9.6000000e+00, -7.7343750e+00,  4.2000000e+00</node>
<!-- ... 12850 like lines cut -->
		</Nodes>
		<Nodes name="Object02">
			<node id="12871"> -1.0606602e+00, -1.0606602e+00,  6.1393398e+00</node>
			<node id="12872">  0.0000000e+00, -1.0606602e+00,  6.1393398e+00</node>
			<node id="12873">  1.0606602e+00, -1.0606602e+00,  6.1393398e+00</node>
			<node id="12874"> -1.0606602e+00,  0.0000000e+00,  6.1393398e+00</node>
			<node id="12875">  0.0000000e+00,  0.0000000e+00,  6.1393398e+00</node>
			<node id="12876">  1.0606602e+00,  0.0000000e+00,  6.1393398e+00</node>
			<node id="12877"> -1.0606602e+00,  1.0606602e+00,  6.1393398e+00</node>
			<node id="12878">  0.0000000e+00,  1.0606602e+00,  6.1393398e+00</node>
			<node id="12879">  1.0606602e+00,  1.0606602e+00,  6.1393398e+00</node>
			<node id="12880"> -1.0606602e+00, -1.0606602e+00,  7.2000000e+00</node>
			<node id="12881">  0.0000000e+00, -1.0606602e+00,  7.2000000e+00</node>
			<node id="12882">  1.0606602e+00, -1.0606602e+00,  7.2000000e+00</node>
			<node id="12883"> -1.0606602e+00,  0.0000000e+00,  7.2000000e+00</node>
			<node id="12884">  0.0000000e+00,  0.0000000e+00,  7.2000000e+00</node>
			<node id="12885">  1.0606602e+00,  0.0000000e+00,  7.2000000e+00</node>
			<node id="12886"> -1.0606602e+00,  1.0606602e+00,  7.2000000e+00</node>
			<node id="12887">  0.0000000e+00,  1.0606602e+00,  7.2000000e+00</node>
			<node id="12888">  1.0606602e+00,  1.0606602e+00,  7.2000000e+00</node>
			<node id="12889"> -1.0606602e+00, -1.0606602e+00,  8.2606602e+00</node>
			<node id="12890">  0.0000000e+00, -1.0606602e+00,  8.2606602e+00</node>
<!-- ... 2253 like lines cut -->
		</Nodes>
		<Elements type="hex8" mat="1" name="Part1">
			<elem id="1">     1,   331,   341,    11,     2,   332,   342,    12</elem>
			<elem id="2">     2,   332,   342,    12,     3,   333,   343,    13</elem>
			<elem id="3">     3,   333,   343,    13,     4,   334,   344,    14</elem>
			<elem id="4">     4,   334,   344,    14,     5,   335,   345,    15</elem>
			<elem id="5">     5,   335,   345,    15,     6,   336,   346,    16</elem>
			<elem id="6">     6,   336,   346,    16,     7,   337,   347,    17</elem>
			<elem id="7">     7,   337,   347,    17,     8,   338,   348,    18</elem>
			<elem id="8">     8,   338,   348,    18,     9,   339,   349,    19</elem>
			<elem id="9">     9,   339,   349,    19,    10,   340,   350,    20</elem>
			<elem id="10">    11,   341,   351,    21,    12,   342,   352,    22</elem>
			<elem id="11">    12,   342,   352,    22,    13,   343,   353,    23</elem>
			<elem id="12">    13,   343,   353,    23,    14,   344,   354,    24</elem>
			<elem id="13">    14,   344,   354,    24,    15,   345,   355,    25</elem>
			<elem id="14">    15,   345,   355,    25,    16,   346,   356,    26</elem>
			<elem id="15">    16,   346,   356,    26,    17,   347,   357,    27</elem>
			<elem id="16">    17,   347,   357,    27,    18,   348,   358,    28</elem>
			<elem id="17">    18,   348,   358,    28,    19,   349,   359,    29</elem>
			<elem id="18">    19,   349,   359,    29,    20,   350,   360,    30</elem>
			<elem id="19">    21,   351,   361,    31,    22,   352,   362,    32</elem>
			<elem id="20">    22,   352,   362,    32,    23,   353,   363,    33</elem>
<!-- ... 10924 like lines cut -->
		</Elements>
		<Elements type="hex8" mat="2" name="Part3">
			<elem id="10945"> 12871, 12924, 13350, 12956, 12935, 13308, 14280, 13337</elem>
			<elem id="10946"> 12924, 12925, 13351, 13350, 13308, 13309, 14281, 14280</elem>
			<elem id="10947"> 12925, 12926, 13352, 13351, 13309, 13310, 14282, 14281</elem>
			<elem id="10948"> 12926, 12872, 12936, 13352, 13310, 12927, 13317, 14282</elem>
			<elem id="10949"> 12956, 13350, 13347, 12955, 13337, 14280, 14283, 13336</elem>
			<elem id="10950"> 13350, 13351, 13348, 13347, 14280, 14281, 14284, 14283</elem>
			<elem id="10951"> 13351, 13352, 13349, 13348, 14281, 14282, 14285, 14284</elem>
			<elem id="10952"> 13352, 12936, 12937, 13349, 14282, 13317, 13318, 14285</elem>
			<elem id="10953"> 12955, 13347, 13344, 12954, 13336, 14283, 14286, 13335</elem>
			<elem id="10954"> 13347, 13348, 13345, 13344, 14283, 14284, 14287, 14286</elem>
			<elem id="10955"> 13348, 13349, 13346, 13345, 14284, 14285, 14288, 14287</elem>
			<elem id="10956"> 13349, 12937, 12938, 13346, 14285, 13318, 13319, 14288</elem>
			<elem id="10957"> 12954, 13344, 12947, 12874, 13335, 14286, 13328, 12948</elem>
			<elem id="10958"> 13344, 13345, 12946, 12947, 14286, 14287, 13327, 13328</elem>
			<elem id="10959"> 13345, 13346, 12945, 12946, 14287, 14288, 13326, 13327</elem>
			<elem id="10960"> 13346, 12938, 12875, 12945, 14288, 13319, 12939, 13326</elem>
			<elem id="10961"> 12935, 13308, 14280, 13337, 12934, 13311, 14289, 13340</elem>
			<elem id="10962"> 13308, 13309, 14281, 14280, 13311, 13312, 14290, 14289</elem>
			<elem id="10963"> 13309, 13310, 14282, 14281, 13312, 13313, 14291, 14290</elem>
			<elem id="10964"> 13310, 12927, 13317, 14282, 13313, 12928, 13320, 14291</elem>
<!-- ... 2028 like lines cut -->
		</Elements>
		<NodeSet name="FixedDisplacement1">
			<node id="1"/>
			<node id="2"/>
			<node id="3"/>
			<node id="4"/>
			<node id="5"/>
			<node id="6"/>
			<node id="7"/>
			<node id="8"/>
			<node id="9"/>
			<node id="10"/>
			<node id="11"/>
			<node id="12"/>
			<node id="13"/>
			<node id="14"/>
			<node id="15"/>
			<node id="16"/>
			<node id="17"/>
			<node id="18"/>
			<node id="19"/>
			<node id="20"/>
<!-- ... 310 like lines cut -->
		</NodeSet>
		<NodeSet name="FixedDisplacement2">
			<node id="1"/>
			<node id="11"/>
			<node id="21"/>
			<node id="31"/>
			<node id="41"/>
			<node id="51"/>
			<node id="61"/>
			<node id="71"/>
			<node id="81"/>
			<node id="91"/>
			<node id="101"/>
			<node id="111"/>
			<node id="121"/>
			<node id="131"/>
			<node id="141"/>
			<node id="151"/>
			<node id="161"/>
			<node id="171"/>
			<node id="181"/>
			<node id="191"/>
<!-- ... 1267 like lines cut -->
		</NodeSet>
		<Surface name="Sliding-elasticContact1_master">
			<quad4 id="1"> 12903, 13164, 13812, 13152</quad4>
			<quad4 id="2"> 13152, 13812, 13815, 13153</quad4>
			<quad4 id="3"> 13153, 13815, 13818, 13154</quad4>
			<quad4 id="4"> 13154, 13818, 13172, 12911</quad4>
			<quad4 id="5"> 13164, 13165, 13813, 13812</quad4>
			<quad4 id="6"> 13812, 13813, 13816, 13815</quad4>
			<quad4 id="7"> 13815, 13816, 13819, 13818</quad4>
			<quad4 id="8"> 13818, 13819, 13171, 13172</quad4>
			<quad4 id="9"> 13165, 13166, 13814, 13813</quad4>
			<quad4 id="10"> 13813, 13814, 13817, 13816</quad4>
			<quad4 id="11"> 13816, 13817, 13820, 13819</quad4>
			<quad4 id="12"> 13819, 13820, 13170, 13171</quad4>
			<quad4 id="13"> 13166, 12906, 13167, 13814</quad4>
			<quad4 id="14"> 13814, 13167, 13168, 13817</quad4>
			<quad4 id="15"> 13817, 13168, 13169, 13820</quad4>
			<quad4 id="16"> 13820, 13169, 12914, 13170</quad4>
			<quad4 id="17"> 12906, 13197, 13902, 13167</quad4>
			<quad4 id="18"> 13167, 13902, 13905, 13168</quad4>
			<quad4 id="19"> 13168, 13905, 13908, 13169</quad4>
			<quad4 id="20"> 13169, 13908, 13205, 12914</quad4>
<!-- ... 172 like lines cut -->
		</Surface>
		<Surface name="Sliding-elasticContact1_slave">
			<quad4 id="1">    10,   340,   350,    20</quad4>
			<quad4 id="2">    20,   350,   360,    30</quad4>
			<quad4 id="3">    30,   360,   370,    40</quad4>
			<quad4 id="4">    40,   370,   380,    50</quad4>
			<quad4 id="5">    50,   380,   390,    60</quad4>
			<quad4 id="6">    60,   390,   400,    70</quad4>
			<quad4 id="7">    70,   400,   410,    80</quad4>
			<quad4 id="8">    80,   410,   420,    90</quad4>
			<quad4 id="9">    90,   420,   430,   100</quad4>
			<quad4 id="10">   100,   430,   440,   110</quad4>
			<quad4 id="11">   110,   440,   450,   120</quad4>
			<quad4 id="12">   120,   450,   460,   130</quad4>
			<quad4 id="13">   130,   460,   470,   140</quad4>
			<quad4 id="14">   140,   470,   480,   150</quad4>
			<quad4 id="15">   150,   480,   490,   160</quad4>
			<quad4 id="16">   160,   490,   500,   170</quad4>
			<quad4 id="17">   170,   500,   510,   180</quad4>
			<quad4 id="18">   180,   510,   520,   190</quad4>
			<quad4 id="19">   190,   520,   530,   200</quad4>
			<quad4 id="20">   200,   530,   540,   210</quad4>
<!-- ... 1196 like lines cut -->
		</Surface>
		<SurfacePair name="Sliding-elasticContact1">
			<master surface="Sliding-elasticContact1_master"/>
			<slave surface="Sliding-elasticContact1_slave"/>
		</SurfacePair>
	</Geometry>
	<Boundary>
		<fix bc="x,y,z" node_set="FixedDisplacement1"/>
		<fix bc="z" node_set="FixedDisplacement2"/>
		<rigid_body mat="2">
			<fixed bc="x"/>
			<fixed bc="y"/>
			<fixed bc="Rx"/>
			<fixed bc="Ry"/>
			<fixed bc="Rz"/>
		</rigid_body>
		<rigid_body mat="2">
			<prescribed bc="z" lc="2">-2.52</prescribed>
		</rigid_body>
	</Boundary>
	<Contact>
		<contact type="sliding-elastic" name="Sliding-elasticContact1" surface_pair="Sliding-elasticContact1">
         <laugon>1</laugon>
         <tolerance>0.2</tolerance>
         <gaptol>0</gaptol>
         <penalty lc="2">10</penalty>
         <auto_penalty>1</auto_penalty>
         <two_pass>0</two_pass>
         <search_tol>0.01</search_tol>
         <symmetric_stiffness>0</symmetric_stiffness>
         <search_radius>1</search_radius>
         <seg_up>0</seg_up>
         <tension>0</tension>
         <minaug>0</minaug>
         <maxaug>10</maxaug>
         <fric_coeff>0</fric_coeff>
         <smooth_aug>0</smooth_aug>
         <node_reloc>0</node_reloc>
         <flip_master>0</flip_master>
         <flip_slave>0</flip_slave>
		</contact>
	</Contact>
	<LoadData>
      <loadcurve id="1" type="step">
         <point>0,0.25</point>
         <point>0.25,0.25</point>
         <point>0.5,0.25</point>
         <point>0.75,0.25</point>
         <point>1,0.25</point>
      </loadcurve>
      <loadcurve id="2" type="smooth">
         <point>0,0</point>
         <point>1,1</point>
      </loadcurve>
	</LoadData>
	<Output>
      <plotfile type="febio">
         <var type="displacement"/>
         <var type="stress"/>
      </plotfile>
      <logfile>
         <node_data data="uz" file="disp.txt">12902</node_data>
         <rigid_body_data data="Fz" name="Force" file="force.txt">2</rigid_body_data>
         <element_data data="E1;E2" name="Principal Strains" file="strains.txt">5617</element_data>
      </logfile>
	</Output>
</febio_spec>
