<?xml version="1.0" encoding="utf-8"?>
<febio_spec version="2.5">
   <Module type="solid"/>
   <Control>
      <time_steps>8</time_steps>
      <step_size>0.125</step_size>
      <max_refs>15</max_refs>
      <max_ups>10</max_ups>
      <diverge_reform>1</diverge_reform>
      <reform_each_time_step>1</reform_each_time_step>
      <dtol>0.001</dtol>
      <etol>0.01</etol>
      <rtol>0</rtol>
      <lstol>0.9</lstol>
      <min_residual>1e-20</min_residual>
      <qnmethod>0</qnmethod>
      <time_stepper>
         <dtmin>0.01</dtmin>
         <dtmax lc="2"/>
         <max_retries>10</max_retries>
         <opt_iter>10</opt_iter>
      </time_stepper>
      <analysis type="static"/>
      <symmetric_stiffness>0</symmetric_stiffness>
   </Control>
   <Globals>
      <Constants>
         <T>0</T>
         <R>0</R>
         <Fc>0</Fc>
      </Constants>
   </Globals>
   <Material>
      <material id="1" name="Material1" type="solid mixture">
         <solid type="ABCompressive3">
            <N>4.0</N>
            <ksi>0.00001</ksi>
            <kappa>1.0</kappa>
         </solid>
         <solid type="continuous fiber distribution">
            <fibers type="FiberEntropyChain2">
               <ksi>1.0</ksi>
               <N>4.0</N>
               <mu>0</mu>
            </fibers>
            <fiber type="angles">
               <theta>0</theta>
               <phi>90</phi>
            </fiber>
            <distribution type="von-Mises-3d">
               <b>0.47</b>
            </distribution>
            <scheme type="fibers-3d-fei">
               <resolution>196</resolution>
            </scheme>
         </solid>
      </material>
      <material id="2" name="Material2" type="rigid body">
         <density>1</density>
         <center_of_mass>0,0,0</center_of_mass>
      </material>
   </Material>
   <Geometry>
      <Nodes name="Object3">
         <node id="1"> -3.8700000e+00, -2.8200000e+00, 0.0000000e+00</node>
         <node id="2"> -3.8700000e+00, -2.8200000e+00, 5.0000000e-01</node>
         <node id="3"> -3.8700000e+00, -2.8200000e+00, 1.0000000e+00</node>
         <node id="4"> -3.8700000e+00, -2.8200000e+00, 1.5000000e+00</node>
         <node id="5"> -3.8700000e+00, -2.8200000e+00, 2.0000000e+00</node>
         <node id="6"> -3.8700000e+00, -2.8200000e+00, 2.5000000e+00</node>
         <node id="7"> -3.8700000e+00, -2.8200000e+00, 3.0000000e+00</node>
         <node id="8"> -3.8700000e+00, -2.8200000e+00, 3.5000000e+00</node>
         <node id="9"> -3.8700000e+00, -2.8200000e+00, 4.0000000e+00</node>
         <node id="10"> -3.8700000e+00, -2.8200000e+00, 4.5000000e+00</node>
         <node id="11"> -3.8700000e+00, -2.8200000e+00, 5.0000000e+00</node>
         <node id="12"> -3.8700000e+00, -2.8200000e+00, 5.5000000e+00</node>
         <node id="13"> -3.8700000e+00, -2.8200000e+00, 6.0000000e+00</node>
         <node id="14"> -3.8700000e+00, -2.8200000e+00, 6.5000000e+00</node>
         <node id="15"> -3.8700000e+00, -2.8200000e+00, 7.0000000e+00</node>
         <node id="16"> -3.8700000e+00, -2.8200000e+00, 7.5000000e+00</node>
         <node id="17"> -3.8700000e+00, -2.8200000e+00, 8.0000000e+00</node>
         <node id="18"> -3.8700000e+00, -2.8200000e+00, 8.5000000e+00</node>
         <node id="19"> -3.8700000e+00, -2.8200000e+00, 9.0000000e+00</node>
         <node id="20"> -3.8700000e+00, -2.8200000e+00, 9.5000000e+00</node>
<!-- ... 4780 like lines cut -->
      </Nodes>
      <Nodes name="Object1">
         <node id="4801"> -3.8700000e+00, -2.8200000e+00, 1.2000000e+01</node>
         <node id="4802"> -3.8700000e+00, -2.8200000e+00, 1.3000000e+01</node>
         <node id="4803"> -3.8700000e+00, 2.8200000e+00, 1.2000000e+01</node>
         <node id="4804"> -3.8700000e+00, 2.8200000e+00, 1.3000000e+01</node>
         <node id="4805"> 3.8700000e+00, -2.8200000e+00, 1.2000000e+01</node>
         <node id="4806"> 3.8700000e+00, -2.8200000e+00, 1.3000000e+01</node>
         <node id="4807"> 3.8700000e+00, 2.8200000e+00, 1.2000000e+01</node>
         <node id="4808"> 3.8700000e+00, 2.8200000e+00, 1.3000000e+01</node>
      </Nodes>
      <Elements mat="1" name="Part3" type="hex8">
         <elem id="1"> 1, 301, 326, 26, 2, 302, 327, 27</elem>
         <elem id="2"> 2, 302, 327, 27, 3, 303, 328, 28</elem>
         <elem id="3"> 3, 303, 328, 28, 4, 304, 329, 29</elem>
         <elem id="4"> 4, 304, 329, 29, 5, 305, 330, 30</elem>
         <elem id="5"> 5, 305, 330, 30, 6, 306, 331, 31</elem>
         <elem id="6"> 6, 306, 331, 31, 7, 307, 332, 32</elem>
         <elem id="7"> 7, 307, 332, 32, 8, 308, 333, 33</elem>
         <elem id="8"> 8, 308, 333, 33, 9, 309, 334, 34</elem>
         <elem id="9"> 9, 309, 334, 34, 10, 310, 335, 35</elem>
         <elem id="10"> 10, 310, 335, 35, 11, 311, 336, 36</elem>
         <elem id="11"> 11, 311, 336, 36, 12, 312, 337, 37</elem>
         <elem id="12"> 12, 312, 337, 37, 13, 313, 338, 38</elem>
         <elem id="13"> 13, 313, 338, 38, 14, 314, 339, 39</elem>
         <elem id="14"> 14, 314, 339, 39, 15, 315, 340, 40</elem>
         <elem id="15"> 15, 315, 340, 40, 16, 316, 341, 41</elem>
         <elem id="16"> 16, 316, 341, 41, 17, 317, 342, 42</elem>
         <elem id="17"> 17, 317, 342, 42, 18, 318, 343, 43</elem>
         <elem id="18"> 18, 318, 343, 43, 19, 319, 344, 44</elem>
         <elem id="19"> 19, 319, 344, 44, 20, 320, 345, 45</elem>
         <elem id="20"> 20, 320, 345, 45, 21, 321, 346, 46</elem>
<!-- ... 3940 like lines cut -->
      </Elements>
      <Elements mat="2" name="Part1" type="hex8">
         <elem id="3961"> 4801, 4805, 4807, 4803, 4802, 4806, 4808, 4804</elem>
      </Elements>
      <NodeSet name="FixedDisplacement1">
         <node id="1"/>
         <node id="26"/>
         <node id="51"/>
         <node id="76"/>
         <node id="101"/>
         <node id="126"/>
         <node id="151"/>
         <node id="176"/>
         <node id="201"/>
         <node id="226"/>
         <node id="251"/>
         <node id="276"/>
         <node id="301"/>
         <node id="326"/>
         <node id="351"/>
         <node id="376"/>
         <node id="401"/>
         <node id="426"/>
         <node id="451"/>
         <node id="476"/>
<!-- ... 172 like lines cut -->
      </NodeSet>
      <Surface name="TiedElastic1_master">
         <quad4 id="1"> 25, 325, 350, 50</quad4>
         <quad4 id="2"> 50, 350, 375, 75</quad4>
         <quad4 id="3"> 75, 375, 400, 100</quad4>
         <quad4 id="4"> 100, 400, 425, 125</quad4>
         <quad4 id="5"> 125, 425, 450, 150</quad4>
         <quad4 id="6"> 150, 450, 475, 175</quad4>
         <quad4 id="7"> 175, 475, 500, 200</quad4>
         <quad4 id="8"> 200, 500, 525, 225</quad4>
         <quad4 id="9"> 225, 525, 550, 250</quad4>
         <quad4 id="10"> 250, 550, 575, 275</quad4>
         <quad4 id="11"> 275, 575, 600, 300</quad4>
         <quad4 id="12"> 325, 625, 650, 350</quad4>
         <quad4 id="13"> 350, 650, 675, 375</quad4>
         <quad4 id="14"> 375, 675, 700, 400</quad4>
         <quad4 id="15"> 400, 700, 725, 425</quad4>
         <quad4 id="16"> 425, 725, 750, 450</quad4>
         <quad4 id="17"> 450, 750, 775, 475</quad4>
         <quad4 id="18"> 475, 775, 800, 500</quad4>
         <quad4 id="19"> 500, 800, 825, 525</quad4>
         <quad4 id="20"> 525, 825, 850, 550</quad4>
<!-- ... 145 like lines cut -->
      </Surface>
      <Surface name="TiedElastic1_slave">
         <quad4 id="1"> 4801, 4803, 4807, 4805</quad4>
      </Surface>
      <SurfacePair name="TiedElastic1">
         <master surface="TiedElastic1_master"/>
         <slave surface="TiedElastic1_slave"/>
      </SurfacePair>
   </Geometry>
   <Boundary>
      <fix bc="x,y,z" node_set="FixedDisplacement1"/>
      <rigid_body mat="2">
         <fixed bc="x"/>
         <fixed bc="y"/>
         <fixed bc="Rx"/>
         <fixed bc="Ry"/>
         <fixed bc="Rz"/>
      </rigid_body>
      <rigid_body mat="2">
         <prescribed bc="z" lc="1">6.36</prescribed>
      </rigid_body>
   </Boundary>
   <Contact>
      <contact name="TiedElastic1" surface_pair="TiedElastic1" type="tied-elastic">
         <laugon>1</laugon>
         <tolerance>0.2</tolerance>
         <gaptol>0</gaptol>
         <penalty>1</penalty>
         <auto_penalty>1</auto_penalty>
         <two_pass>1</two_pass>
         <knmult>1</knmult>
         <search_tol>0.01</search_tol>
         <symmetric_stiffness>0</symmetric_stiffness>
         <search_radius>1</search_radius>
         <minaug>0</minaug>
         <maxaug>10</maxaug>
      </contact>
   </Contact>
   <LoadData>
      <loadcurve id="1" type="smooth">
         <point>0,0</point>
         <point>1,1</point>
      </loadcurve>
      <loadcurve id="2" type="step">
         <point>0,0.33</point>
         <point>0.33,0.33</point>
         <point>0.67,0.34</point>
         <point>1,0.33</point>
      </loadcurve>
   </LoadData>
   <Output>
      <plotfile type="febio">
         <var type="displacement"/>
         <var type="relative volume"/>
         <var type="stress"/>
      </plotfile>
      <logfile>
         <node_data data="uz">4802</node_data>
         <rigid_body_data data="Fz" name="Force">2</rigid_body_data>
      </logfile>
   </Output>
</febio_spec>
