<?xml version="1.0" encoding="utf-8"?>
<febio_spec version="3.0">
   <Module type="biphasic"/>
   <Control>
      <analysis>TRANSIENT</analysis>
      <time_steps>255</time_steps>
      <step_size>1.0</step_size>
      <solver>
         <max_refs>25</max_refs>
         <max_ups>10</max_ups>
         <diverge_reform>1</diverge_reform>
         <reform_each_time_step>1</reform_each_time_step>
         <dtol>0.001</dtol>
         <etol>0.01</etol>
         <rtol>0</rtol>
         <lstol>0.9</lstol>
         <min_residual>1e-20</min_residual>
         <qnmethod>BFGS</qnmethod>
         <rhoi>-2</rhoi>
         <symmetric_stiffness>0</symmetric_stiffness>
      </solver>
      <time_stepper>
         <dtmin>0.01</dtmin>
         <dtmax lc="1"/>
         <max_retries>20</max_retries>
         <opt_iter>10</opt_iter>
      </time_stepper>
   </Control>
   <Globals>
      <Constants>
         <T>0</T>
         <R>0</R>
         <Fc>0</Fc>
      </Constants>
   </Globals>
   <Material>
      <material id="1" name="Indenter" type="rigid body">
         <density>1</density>
         <center_of_mass>0,0,0</center_of_mass>
      </material>
      <material id="2" name="Sample" type="biphasic">
         <phi0>0.2</phi0>
         <fluid_density>1</fluid_density>
         <permeability type="perm-const-iso">
            <perm>0.14</perm>
         </permeability>
         <solid type="viscoelastic">
            <g1>1.8</g1>
            <t1>10.0</t1>
            <elastic type="solid mixture">
               <solid type="neo-Hookean">
                  <density>1</density>
                  <E>0.5</E>
                  <v>0.2</v>
               </solid>
               <solid type="continuous fiber distribution">
                  <density>0</density>
                  <fibers type="fiber-exp-pow">
                     <alpha>1.2</alpha>
                     <beta>2.0</beta>
                     <ksi>0.1</ksi>
                  </fibers>
                  <mat_axis type="angles">
                     <theta>0.0</theta>
                     <phi>90.0</phi>
                  </mat_axis>
                  <distribution type="von-Mises-3d">
                     <b>0.26</b>
                  </distribution>
                  <scheme type="fibers-3d-fei">
                     <resolution>196</resolution>
                  </scheme>
               </solid>
            </elastic>
         </solid>
      </material>
   </Material>
   <Mesh>
      <Nodes>
         <node id="1">0,0,-3.7</node>
         <node id="2">0.4,0,-3.7</node>
         <node id="3">0.8,0,-3.7</node>
         <node id="4">1.2,0,-3.7</node>
         <node id="5">1.6,0,-3.7</node>
         <node id="6">2,0,-3.7</node>
         <node id="7">2.4,0,-3.7</node>
         <node id="8">2.8,0,-3.7</node>
         <node id="9">3.2,0,-3.7</node>
         <node id="10">3.6,0,-3.7</node>
         <node id="11">4,0,-3.7</node>
         <node id="12">0,0.4,-3.7</node>
         <node id="13">0.4,0.4,-3.7</node>
         <node id="14">0.8,0.4,-3.7</node>
         <node id="15">1.2,0.4,-3.7</node>
         <node id="16">1.6,0.4,-3.7</node>
         <node id="17">2,0.4,-3.7</node>
         <node id="18">2.4,0.4,-3.7</node>
         <node id="19">2.8,0.4,-3.7</node>
         <node id="20">3.2,0.4,-3.7</node>
<!-- ... 1704 like lines cut -->
      </Nodes>
      <Elements mat="2" name="solid_mixture" type="hex8">
         <elem id="1"> 1, 2, 13, 12, 166, 167, 178, 177</elem>
         <elem id="2"> 2, 3, 14, 13, 167, 168, 179, 178</elem>
         <elem id="3"> 3, 4, 15, 14, 168, 169, 180, 179</elem>
         <elem id="4"> 4, 5, 16, 15, 169, 170, 181, 180</elem>
         <elem id="5"> 5, 6, 17, 16, 170, 171, 182, 181</elem>
         <elem id="6"> 6, 7, 18, 17, 171, 172, 183, 182</elem>
         <elem id="7"> 7, 8, 19, 18, 172, 173, 184, 183</elem>
         <elem id="8"> 8, 9, 20, 19, 173, 174, 185, 184</elem>
         <elem id="9"> 9, 10, 21, 20, 174, 175, 186, 185</elem>
         <elem id="10"> 10, 11, 22, 21, 175, 176, 187, 186</elem>
         <elem id="11"> 12, 13, 24, 23, 177, 178, 189, 188</elem>
         <elem id="12"> 13, 14, 25, 24, 178, 179, 190, 189</elem>
         <elem id="13"> 14, 15, 26, 25, 179, 180, 191, 190</elem>
         <elem id="14"> 15, 16, 27, 26, 180, 181, 192, 191</elem>
         <elem id="15"> 16, 17, 28, 27, 181, 182, 193, 192</elem>
         <elem id="16"> 17, 18, 29, 28, 182, 183, 194, 193</elem>
         <elem id="17"> 18, 19, 30, 29, 183, 184, 195, 194</elem>
         <elem id="18"> 19, 20, 31, 30, 184, 185, 196, 195</elem>
         <elem id="19"> 20, 21, 32, 31, 185, 186, 197, 196</elem>
         <elem id="20"> 21, 22, 33, 32, 186, 187, 198, 197</elem>
<!-- ... 1240 like lines cut -->
      </Elements>
      <Elements mat="1" name="indenter" type="hex8">
         <elem id="1261"> 1651, 1655, 1656, 1652, 1688, 1692, 1693, 1689</elem>
         <elem id="1262"> 1652, 1656, 1657, 1653, 1689, 1693, 1694, 1690</elem>
         <elem id="1263"> 1653, 1657, 1658, 1654, 1690, 1694, 1695, 1691</elem>
         <elem id="1264"> 1654, 1658, 1676, 1675, 1691, 1695, 1713, 1712</elem>
         <elem id="1265"> 1655, 1659, 1660, 1656, 1692, 1696, 1697, 1693</elem>
         <elem id="1266"> 1656, 1660, 1661, 1657, 1693, 1697, 1698, 1694</elem>
         <elem id="1267"> 1657, 1661, 1662, 1658, 1694, 1698, 1699, 1695</elem>
         <elem id="1268"> 1658, 1662, 1677, 1676, 1695, 1699, 1714, 1713</elem>
         <elem id="1269"> 1659, 1663, 1664, 1660, 1696, 1700, 1701, 1697</elem>
         <elem id="1270"> 1660, 1664, 1665, 1661, 1697, 1701, 1702, 1698</elem>
         <elem id="1271"> 1661, 1665, 1666, 1662, 1698, 1702, 1703, 1699</elem>
         <elem id="1272"> 1662, 1666, 1678, 1677, 1699, 1703, 1715, 1714</elem>
         <elem id="1273"> 1663, 1681, 1684, 1664, 1700, 1718, 1721, 1701</elem>
         <elem id="1274"> 1664, 1684, 1687, 1665, 1701, 1721, 1724, 1702</elem>
         <elem id="1275"> 1665, 1687, 1678, 1666, 1702, 1724, 1715, 1703</elem>
         <elem id="1276"> 1667, 1671, 1672, 1668, 1704, 1708, 1709, 1705</elem>
         <elem id="1277"> 1668, 1672, 1673, 1669, 1705, 1709, 1710, 1706</elem>
         <elem id="1278"> 1669, 1673, 1674, 1670, 1706, 1710, 1711, 1707</elem>
         <elem id="1279"> 1670, 1674, 1686, 1685, 1707, 1711, 1723, 1722</elem>
         <elem id="1280"> 1671, 1675, 1676, 1672, 1708, 1712, 1713, 1709</elem>
<!-- ... 7 like lines cut -->
      </Elements>
      <NodeSet name="FixedBottom_z">
         <node id="1"/>
         <node id="2"/>
         <node id="3"/>
         <node id="4"/>
         <node id="5"/>
         <node id="6"/>
         <node id="7"/>
         <node id="8"/>
         <node id="9"/>
         <node id="10"/>
         <node id="11"/>
         <node id="12"/>
         <node id="13"/>
         <node id="14"/>
         <node id="15"/>
         <node id="16"/>
         <node id="17"/>
         <node id="18"/>
         <node id="19"/>
         <node id="20"/>
<!-- ... 145 like lines cut -->
      </NodeSet>
      <NodeSet name="FixedSide_x">
         <node id="1"/>
         <node id="12"/>
         <node id="23"/>
         <node id="34"/>
         <node id="45"/>
         <node id="56"/>
         <node id="67"/>
         <node id="78"/>
         <node id="89"/>
         <node id="100"/>
         <node id="111"/>
         <node id="122"/>
         <node id="133"/>
         <node id="144"/>
         <node id="155"/>
         <node id="166"/>
         <node id="177"/>
         <node id="188"/>
         <node id="199"/>
         <node id="210"/>
<!-- ... 130 like lines cut -->
      </NodeSet>
      <NodeSet name="FixedSide_y">
         <node id="1"/>
         <node id="2"/>
         <node id="3"/>
         <node id="4"/>
         <node id="5"/>
         <node id="6"/>
         <node id="7"/>
         <node id="8"/>
         <node id="9"/>
         <node id="10"/>
         <node id="11"/>
         <node id="166"/>
         <node id="167"/>
         <node id="168"/>
         <node id="169"/>
         <node id="170"/>
         <node id="171"/>
         <node id="172"/>
         <node id="173"/>
         <node id="174"/>
<!-- ... 90 like lines cut -->
      </NodeSet>
      <NodeSet name="FixedSide_p">
         <node id="11"/>
         <node id="22"/>
         <node id="33"/>
         <node id="44"/>
         <node id="55"/>
         <node id="66"/>
         <node id="77"/>
         <node id="88"/>
         <node id="99"/>
         <node id="110"/>
         <node id="121"/>
         <node id="132"/>
         <node id="143"/>
         <node id="154"/>
         <node id="155"/>
         <node id="156"/>
         <node id="157"/>
         <node id="158"/>
         <node id="159"/>
         <node id="160"/>
<!-- ... 230 like lines cut -->
      </NodeSet>
      <Surface name="Primary">
         <quad4 id="1"> 1651, 1652, 1656, 1655</quad4>
         <quad4 id="2"> 1652, 1653, 1657, 1656</quad4>
         <quad4 id="3"> 1653, 1654, 1658, 1657</quad4>
         <quad4 id="4"> 1654, 1675, 1676, 1658</quad4>
         <quad4 id="5"> 1655, 1656, 1660, 1659</quad4>
         <quad4 id="6"> 1656, 1657, 1661, 1660</quad4>
         <quad4 id="7"> 1657, 1658, 1662, 1661</quad4>
         <quad4 id="8"> 1658, 1676, 1677, 1662</quad4>
         <quad4 id="9"> 1659, 1660, 1664, 1663</quad4>
         <quad4 id="10"> 1660, 1661, 1665, 1664</quad4>
         <quad4 id="11"> 1661, 1662, 1666, 1665</quad4>
         <quad4 id="12"> 1662, 1677, 1678, 1666</quad4>
         <quad4 id="13"> 1663, 1664, 1684, 1681</quad4>
         <quad4 id="14"> 1664, 1665, 1687, 1684</quad4>
         <quad4 id="15"> 1665, 1666, 1678, 1687</quad4>
         <quad4 id="16"> 1667, 1668, 1672, 1671</quad4>
         <quad4 id="17"> 1668, 1669, 1673, 1672</quad4>
         <quad4 id="18"> 1669, 1670, 1674, 1673</quad4>
         <quad4 id="19"> 1670, 1685, 1686, 1674</quad4>
         <quad4 id="20"> 1671, 1672, 1676, 1675</quad4>
<!-- ... 7 like lines cut -->
      </Surface>
      <Surface name="Secondary">
         <quad4 id="1"> 1486, 1487, 1498, 1497</quad4>
         <quad4 id="2"> 1487, 1488, 1499, 1498</quad4>
         <quad4 id="3"> 1488, 1489, 1500, 1499</quad4>
         <quad4 id="4"> 1489, 1490, 1501, 1500</quad4>
         <quad4 id="5"> 1490, 1491, 1502, 1501</quad4>
         <quad4 id="6"> 1491, 1492, 1503, 1502</quad4>
         <quad4 id="7"> 1492, 1493, 1504, 1503</quad4>
         <quad4 id="8"> 1493, 1494, 1505, 1504</quad4>
         <quad4 id="9"> 1494, 1495, 1506, 1505</quad4>
         <quad4 id="10"> 1495, 1496, 1507, 1506</quad4>
         <quad4 id="11"> 1497, 1498, 1509, 1508</quad4>
         <quad4 id="12"> 1498, 1499, 1510, 1509</quad4>
         <quad4 id="13"> 1499, 1500, 1511, 1510</quad4>
         <quad4 id="14"> 1500, 1501, 1512, 1511</quad4>
         <quad4 id="15"> 1501, 1502, 1513, 1512</quad4>
         <quad4 id="16"> 1502, 1503, 1514, 1513</quad4>
         <quad4 id="17"> 1503, 1504, 1515, 1514</quad4>
         <quad4 id="18"> 1504, 1505, 1516, 1515</quad4>
         <quad4 id="19"> 1505, 1506, 1517, 1516</quad4>
         <quad4 id="20"> 1506, 1507, 1518, 1517</quad4>
<!-- ... 120 like lines cut -->
      </Surface>
      <SurfacePair name="Sliding_Elastic_Contact">
         <primary>Secondary</primary>
         <secondary>Primary</secondary>
      </SurfacePair>
   </Mesh>
   <MeshDomains>
      <SolidDomain mat="Indenter" name="indenter"/>
      <SolidDomain mat="Sample" name="solid_mixture"/>
   </MeshDomains>
   <Boundary>
      <bc name="FixedDisplacementX" node_set="FixedSide_x" type="fix">
         <dofs>x</dofs>
      </bc>
      <bc name="FixedDisplacementY" node_set="FixedSide_y" type="fix">
         <dofs>y</dofs>
      </bc>
      <bc name="FixedDisplacementZ" node_set="FixedBottom_z" type="fix">
         <dofs>z</dofs>
      </bc>
      <bc name="FixedEffectiveFluidPressure" node_set="FixedSide_p" type="fix">
         <dofs>p</dofs>
      </bc>
   </Boundary>
   <Rigid>
      <rigid_constraint name="RigidFixed01" type="fix">
         <rb>1</rb>
         <dofs>Rx,Ry,Ru,Rv,Rw</dofs>
      </rigid_constraint>
      <rigid_constraint name="RigidDipsZ01" type="prescribe">
         <rb>1</rb>
         <dof>Rz</dof>
         <value lc="2">-1.665</value>
         <relative>0</relative>
      </rigid_constraint>
   </Rigid>
   <Contact>
      <contact name="SEContact" surface_pair="Sliding_Elastic_Contact" type="sliding-biphasic">
         <laugon>1</laugon>
         <tolerance>0.2</tolerance>
         <gaptol>0</gaptol>
         <penalty>100</penalty>
         <pressure_penalty>1.0</pressure_penalty>
         <auto_penalty>1</auto_penalty>
         <search_tol>0.01</search_tol>
         <symmetric_stiffness>0</symmetric_stiffness>
         <search_radius>0.1</search_radius>
         <seg_up>0</seg_up>
         <minaug>0</minaug>
         <maxaug>10</maxaug>
      </contact>
   </Contact>
   <LoadData>
      <load_controller id="1" type="loadcurve">
         <interpolate>STEP</interpolate>
         <points>
            <point>0,0.5</point>
            <point>5,0.5</point>
            <point>10,0.5</point>
            <point>15,0.5</point>
            <point>20,10</point>
            <point>50,10</point>
            <point>100,50</point>
            <point>255,50</point>
         </points>
      </load_controller>
      <load_controller id="2" type="loadcurve">
         <interpolate>LINEAR</interpolate>
         <points>
            <point>0,0</point>
            <point>15,0.33</point>
            <point>255,0.33</point>
         </points>
      </load_controller>
   </LoadData>
   <Output>
      <plotfile type="febio">
         <var type="displacement"/>
         <var type="stress"/>
         <var type="rigid force"/>
         <var type="reaction forces"/>
         <var type="effective fluid pressure"/>
         <var type="fluid pressure"/>
         <var type="fluid flux"/>
      </plotfile>
      <logfile>
         <node_data data="ux;uy;uz" file="disp.txt">1651</node_data>
         <rigid_body_data data="Fx;Fy;Fz" file="force.txt">1</rigid_body_data>
      </logfile>
   </Output>
</febio_spec>