<?xml version="1.0" encoding="utf-8"?>
<febio_spec version="3.0">
   <Module type="biphasic"/>
   <Control>
      <analysis>TRANSIENT</analysis>
      <time_steps>255</time_steps>
      <step_size>1.0</step_size>
      <solver>
         <max_refs>25</max_refs>
         <max_ups>10</max_ups>
         <diverge_reform>1</diverge_reform>
         <reform_each_time_step>1</reform_each_time_step>
         <dtol>0.001</dtol>
         <etol>0.01</etol>
         <rtol>0</rtol>
         <lstol>0.9</lstol>
         <min_residual>1e-20</min_residual>
         <qnmethod>BFGS</qnmethod>
         <rhoi>-2</rhoi>
         <symmetric_stiffness>0</symmetric_stiffness>
      </solver>
      <time_stepper>
         <dtmin>0.01</dtmin>
         <dtmax lc="1"/>
         <max_retries>20</max_retries>
         <opt_iter>10</opt_iter>
      </time_stepper>
   </Control>
   <Globals>
      <Constants>
         <T>0</T>
         <R>0</R>
         <Fc>0</Fc>
      </Constants>
   </Globals>
   <Material>
      <material id="1" name="Indenter" type="rigid body">
         <density>1</density>
         <center_of_mass>0,0,0</center_of_mass>
      </material>
      <material id="2" name="Sample" type="biphasic">
         <phi0>0.2</phi0>
         <fluid_density>1</fluid_density>
         <permeability type="perm-const-iso">
            <perm>0.14</perm>
         </permeability>
         <solid type="viscoelastic">
            <g1>1.8</g1>
            <t1>10.0</t1>
            <elastic type="solid mixture">
               <solid type="neo-Hookean">
                  <density>1</density>
                  <E>0.5</E>
                  <v>0.2</v>
               </solid>
               <solid type="continuous fiber distribution">
                  <density>0</density>
                  <fibers type="fiber-exp-pow">
                     <alpha>1.2</alpha>
                     <beta>2.0</beta>
                     <ksi>0.1</ksi>
                  </fibers>
                  <mat_axis type="angles">
                     <theta>0.0</theta>
                     <phi>90.0</phi>
                  </mat_axis>
                  <distribution type="von-Mises-3d">
                     <b>0.52</b>
                  </distribution>
                  <scheme type="fibers-3d-fei">
                     <resolution>196</resolution>
                  </scheme>
               </solid>
            </elastic>
         </solid>
      </material>
   </Material>
   <Mesh>
      <Nodes>
         <node id="1">0,0,-2.4</node>
         <node id="2">0.4,0,-2.4</node>
         <node id="3">0.8,0,-2.4</node>
         <node id="4">1.2,0,-2.4</node>
         <node id="5">1.6,0,-2.4</node>
         <node id="6">2,0,-2.4</node>
         <node id="7">2.5,0,-2.4</node>
         <node id="8">0,0.4,-2.4</node>
         <node id="9">0.4,0.4,-2.4</node>
         <node id="10">0.8,0.4,-2.4</node>
         <node id="11">1.2,0.4,-2.4</node>
         <node id="12">1.6,0.4,-2.4</node>
         <node id="13">2,0.4,-2.4</node>
         <node id="14">2.5,0.4,-2.4</node>
         <node id="15">0,0.8,-2.4</node>
         <node id="16">0.4,0.8,-2.4</node>
         <node id="17">0.8,0.8,-2.4</node>
         <node id="18">1.2,0.8,-2.4</node>
         <node id="19">1.6,0.8,-2.4</node>
         <node id="20">2,0.8,-2.4</node>
<!-- ... 642 like lines cut -->
      </Nodes>
      <Elements mat="2" name="solid_mixture" type="hex8">
         <elem id="1"> 1, 2, 9, 8, 85, 86, 93, 92</elem>
         <elem id="2"> 2, 3, 10, 9, 86, 87, 94, 93</elem>
         <elem id="3"> 3, 4, 11, 10, 87, 88, 95, 94</elem>
         <elem id="4"> 4, 5, 12, 11, 88, 89, 96, 95</elem>
         <elem id="5"> 5, 6, 13, 12, 89, 90, 97, 96</elem>
         <elem id="6"> 6, 7, 14, 13, 90, 91, 98, 97</elem>
         <elem id="7"> 8, 9, 16, 15, 92, 93, 100, 99</elem>
         <elem id="8"> 9, 10, 17, 16, 93, 94, 101, 100</elem>
         <elem id="9"> 10, 11, 18, 17, 94, 95, 102, 101</elem>
         <elem id="10"> 11, 12, 19, 18, 95, 96, 103, 102</elem>
         <elem id="11"> 12, 13, 20, 19, 96, 97, 104, 103</elem>
         <elem id="12"> 13, 14, 21, 20, 97, 98, 105, 104</elem>
         <elem id="13"> 15, 16, 23, 22, 99, 100, 107, 106</elem>
         <elem id="14"> 16, 17, 24, 23, 100, 101, 108, 107</elem>
         <elem id="15"> 17, 18, 25, 24, 101, 102, 109, 108</elem>
         <elem id="16"> 18, 19, 26, 25, 102, 103, 110, 109</elem>
         <elem id="17"> 19, 20, 27, 26, 103, 104, 111, 110</elem>
         <elem id="18"> 20, 21, 28, 27, 104, 105, 112, 111</elem>
         <elem id="19"> 22, 23, 30, 29, 106, 107, 114, 113</elem>
         <elem id="20"> 23, 24, 31, 30, 107, 108, 115, 114</elem>
<!-- ... 376 like lines cut -->
      </Elements>
      <Elements mat="1" name="indenter" type="hex8">
         <elem id="397"> 589, 593, 594, 590, 626, 630, 631, 627</elem>
         <elem id="398"> 590, 594, 595, 591, 627, 631, 632, 628</elem>
         <elem id="399"> 591, 595, 596, 592, 628, 632, 633, 629</elem>
         <elem id="400"> 592, 596, 614, 613, 629, 633, 651, 650</elem>
         <elem id="401"> 593, 597, 598, 594, 630, 634, 635, 631</elem>
         <elem id="402"> 594, 598, 599, 595, 631, 635, 636, 632</elem>
         <elem id="403"> 595, 599, 600, 596, 632, 636, 637, 633</elem>
         <elem id="404"> 596, 600, 615, 614, 633, 637, 652, 651</elem>
         <elem id="405"> 597, 601, 602, 598, 634, 638, 639, 635</elem>
         <elem id="406"> 598, 602, 603, 599, 635, 639, 640, 636</elem>
         <elem id="407"> 599, 603, 604, 600, 636, 640, 641, 637</elem>
         <elem id="408"> 600, 604, 616, 615, 637, 641, 653, 652</elem>
         <elem id="409"> 601, 619, 622, 602, 638, 656, 659, 639</elem>
         <elem id="410"> 602, 622, 625, 603, 639, 659, 662, 640</elem>
         <elem id="411"> 603, 625, 616, 604, 640, 662, 653, 641</elem>
         <elem id="412"> 605, 609, 610, 606, 642, 646, 647, 643</elem>
         <elem id="413"> 606, 610, 611, 607, 643, 647, 648, 644</elem>
         <elem id="414"> 607, 611, 612, 608, 644, 648, 649, 645</elem>
         <elem id="415"> 608, 612, 624, 623, 645, 649, 661, 660</elem>
         <elem id="416"> 609, 613, 614, 610, 646, 650, 651, 647</elem>
<!-- ... 7 like lines cut -->
      </Elements>
      <NodeSet name="FixedBottom_z">
         <node id="1"/>
         <node id="2"/>
         <node id="3"/>
         <node id="4"/>
         <node id="5"/>
         <node id="6"/>
         <node id="7"/>
         <node id="8"/>
         <node id="9"/>
         <node id="10"/>
         <node id="11"/>
         <node id="12"/>
         <node id="13"/>
         <node id="14"/>
         <node id="15"/>
         <node id="16"/>
         <node id="17"/>
         <node id="18"/>
         <node id="19"/>
         <node id="20"/>
<!-- ... 64 like lines cut -->
      </NodeSet>
      <NodeSet name="FixedSide_x">
         <node id="1"/>
         <node id="8"/>
         <node id="15"/>
         <node id="22"/>
         <node id="29"/>
         <node id="36"/>
         <node id="43"/>
         <node id="50"/>
         <node id="57"/>
         <node id="64"/>
         <node id="71"/>
         <node id="78"/>
         <node id="85"/>
         <node id="92"/>
         <node id="99"/>
         <node id="106"/>
         <node id="113"/>
         <node id="120"/>
         <node id="127"/>
         <node id="134"/>
<!-- ... 64 like lines cut -->
      </NodeSet>
      <NodeSet name="FixedSide_y">
         <node id="1"/>
         <node id="2"/>
         <node id="3"/>
         <node id="4"/>
         <node id="5"/>
         <node id="6"/>
         <node id="7"/>
         <node id="85"/>
         <node id="86"/>
         <node id="87"/>
         <node id="88"/>
         <node id="89"/>
         <node id="90"/>
         <node id="91"/>
         <node id="169"/>
         <node id="170"/>
         <node id="171"/>
         <node id="172"/>
         <node id="173"/>
         <node id="174"/>
<!-- ... 29 like lines cut -->
      </NodeSet>
      <NodeSet name="FixedSide_p">
         <node id="7"/>
         <node id="14"/>
         <node id="21"/>
         <node id="28"/>
         <node id="35"/>
         <node id="42"/>
         <node id="49"/>
         <node id="56"/>
         <node id="63"/>
         <node id="70"/>
         <node id="77"/>
         <node id="78"/>
         <node id="79"/>
         <node id="80"/>
         <node id="81"/>
         <node id="82"/>
         <node id="83"/>
         <node id="84"/>
         <node id="91"/>
         <node id="98"/>
<!-- ... 106 like lines cut -->
      </NodeSet>
      <Surface name="Primary">
         <quad4 id="1"> 589, 590, 594, 593</quad4>
         <quad4 id="2"> 590, 591, 595, 594</quad4>
         <quad4 id="3"> 591, 592, 596, 595</quad4>
         <quad4 id="4"> 592, 613, 614, 596</quad4>
         <quad4 id="5"> 593, 594, 598, 597</quad4>
         <quad4 id="6"> 594, 595, 599, 598</quad4>
         <quad4 id="7"> 595, 596, 600, 599</quad4>
         <quad4 id="8"> 596, 614, 615, 600</quad4>
         <quad4 id="9"> 597, 598, 602, 601</quad4>
         <quad4 id="10"> 598, 599, 603, 602</quad4>
         <quad4 id="11"> 599, 600, 604, 603</quad4>
         <quad4 id="12"> 600, 615, 616, 604</quad4>
         <quad4 id="13"> 601, 602, 622, 619</quad4>
         <quad4 id="14"> 602, 603, 625, 622</quad4>
         <quad4 id="15"> 603, 604, 616, 625</quad4>
         <quad4 id="16"> 605, 606, 610, 609</quad4>
         <quad4 id="17"> 606, 607, 611, 610</quad4>
         <quad4 id="18"> 607, 608, 612, 611</quad4>
         <quad4 id="19"> 608, 623, 624, 612</quad4>
         <quad4 id="20"> 609, 610, 614, 613</quad4>
<!-- ... 7 like lines cut -->
      </Surface>
      <Surface name="Secondary">
         <quad4 id="1"> 505, 506, 513, 512</quad4>
         <quad4 id="2"> 506, 507, 514, 513</quad4>
         <quad4 id="3"> 507, 508, 515, 514</quad4>
         <quad4 id="4"> 508, 509, 516, 515</quad4>
         <quad4 id="5"> 509, 510, 517, 516</quad4>
         <quad4 id="6"> 510, 511, 518, 517</quad4>
         <quad4 id="7"> 512, 513, 520, 519</quad4>
         <quad4 id="8"> 513, 514, 521, 520</quad4>
         <quad4 id="9"> 514, 515, 522, 521</quad4>
         <quad4 id="10"> 515, 516, 523, 522</quad4>
         <quad4 id="11"> 516, 517, 524, 523</quad4>
         <quad4 id="12"> 517, 518, 525, 524</quad4>
         <quad4 id="13"> 519, 520, 527, 526</quad4>
         <quad4 id="14"> 520, 521, 528, 527</quad4>
         <quad4 id="15"> 521, 522, 529, 528</quad4>
         <quad4 id="16"> 522, 523, 530, 529</quad4>
         <quad4 id="17"> 523, 524, 531, 530</quad4>
         <quad4 id="18"> 524, 525, 532, 531</quad4>
         <quad4 id="19"> 526, 527, 534, 533</quad4>
         <quad4 id="20"> 527, 528, 535, 534</quad4>
<!-- ... 46 like lines cut -->
      </Surface>
      <SurfacePair name="Sliding_Elastic_Contact">
         <primary>Secondary</primary>
         <secondary>Primary</secondary>
      </SurfacePair>
   </Mesh>
   <MeshDomains>
      <SolidDomain mat="Indenter" name="indenter"/>
      <SolidDomain mat="Sample" name="solid_mixture"/>
   </MeshDomains>
   <Boundary>
      <bc name="FixedDisplacementX" node_set="FixedSide_x" type="fix">
         <dofs>x</dofs>
      </bc>
      <bc name="FixedDisplacementY" node_set="FixedSide_y" type="fix">
         <dofs>y</dofs>
      </bc>
      <bc name="FixedDisplacementZ" node_set="FixedBottom_z" type="fix">
         <dofs>z</dofs>
      </bc>
      <bc name="FixedEffectiveFluidPressure" node_set="FixedSide_p" type="fix">
         <dofs>p</dofs>
      </bc>
   </Boundary>
   <Rigid>
      <rigid_constraint name="RigidFixed01" type="fix">
         <rb>1</rb>
         <dofs>Rx,Ry,Ru,Rv,Rw</dofs>
      </rigid_constraint>
      <rigid_constraint name="RigidDipsZ01" type="prescribe">
         <rb>1</rb>
         <dof>Rz</dof>
         <value lc="2">-1.08</value>
         <relative>0</relative>
      </rigid_constraint>
   </Rigid>
   <Contact>
      <contact name="SEContact" surface_pair="Sliding_Elastic_Contact" type="sliding-biphasic">
         <laugon>1</laugon>
         <tolerance>0.2</tolerance>
         <gaptol>0</gaptol>
         <penalty>100</penalty>
         <pressure_penalty>1.0</pressure_penalty>
         <auto_penalty>1</auto_penalty>
         <search_tol>0.01</search_tol>
         <symmetric_stiffness>0</symmetric_stiffness>
         <search_radius>0.1</search_radius>
         <seg_up>0</seg_up>
         <minaug>0</minaug>
         <maxaug>10</maxaug>
      </contact>
   </Contact>
   <LoadData>
      <load_controller id="1" type="loadcurve">
         <interpolate>STEP</interpolate>
         <points>
            <point>0,0.5</point>
            <point>5,0.5</point>
            <point>10,0.5</point>
            <point>15,0.5</point>
            <point>20,10</point>
            <point>50,10</point>
            <point>100,50</point>
            <point>255,50</point>
         </points>
      </load_controller>
      <load_controller id="2" type="loadcurve">
         <interpolate>LINEAR</interpolate>
         <points>
            <point>0,0</point>
            <point>15,0.33</point>
            <point>255,0.33</point>
         </points>
      </load_controller>
   </LoadData>
   <Output>
      <plotfile type="febio">
         <var type="displacement"/>
         <var type="stress"/>
         <var type="rigid force"/>
         <var type="reaction forces"/>
         <var type="effective fluid pressure"/>
         <var type="fluid pressure"/>
         <var type="fluid flux"/>
      </plotfile>
      <logfile>
         <node_data data="ux;uy;uz" file="disp.txt">589</node_data>
         <rigid_body_data data="Fx;Fy;Fz" file="force.txt">1</rigid_body_data>
      </logfile>
   </Output>
</febio_spec>